data_image0
_cell_length_a       40.3771
_cell_length_b       16.6951
_cell_length_c       32.2925
_cell_angle_alpha    116.684
_cell_angle_beta     134.638
_cell_angle_gamma    100.941

_symmetry_space_group_name_H-M    "P 1"
_symmetry_int_tables_number       1

loop_
  _symmetry_equiv_pos_as_xyz
  'x, y, z'

loop_
  _atom_site_label
  _atom_site_occupancy
  _atom_site_fract_x
  _atom_site_fract_y
  _atom_site_fract_z
  _atom_site_thermal_displace_type
  _atom_site_B_iso_or_equiv
  _atom_site_type_symbol
  H1       1.0000 0.83965  0.40168  0.96421  Biso   1.000  H
  H2       1.0000 0.70923  0.23950  0.81751  Biso   1.000  H
  H3       1.0000 0.67415  0.11519  0.63024  Biso   1.000  H
  H4       1.0000 0.81222  0.28069  0.78437  Biso   1.000  H
  H5       1.0000 0.50308  0.92622  0.47770  Biso   1.000  H
  H6       1.0000 0.05495  0.57284  0.17429  Biso   1.000  H
  H7       1.0000 0.22188  0.96001  0.34495  Biso   1.000  H
  H8       1.0000 0.08440  0.82345  0.23478  Biso   1.000  H
  H9       1.0000 0.08396  0.89093  0.17946  Biso   1.000  H
  H10      1.0000 0.18808  0.15957  0.31535  Biso   1.000  H
  H11      1.0000 0.22486  0.10618  0.33860  Biso   1.000  H
  H12      1.0000 0.31053  0.34473  0.50670  Biso   1.000  H
  H13      1.0000 0.20047  0.14845  0.47797  Biso   1.000  H
  H14      1.0000 0.10816  0.96366  0.34482  Biso   1.000  H
  H15      1.0000 0.20807  0.00255  0.42396  Biso   1.000  H
  H16      1.0000 0.29874  0.17087  0.48422  Biso   1.000  H
  H17      1.0000 0.31315  0.27046  0.56019  Biso   1.000  H
  H18      1.0000 0.03421  0.89714  0.19904  Biso   1.000  H
  H19      1.0000 0.07612  0.03681  0.23305  Biso   1.000  H
  H20      1.0000 0.11957  0.13667  0.36657  Biso   1.000  H
  H21      1.0000 0.20985  0.30411  0.42609  Biso   1.000  H
  H22      1.0000 0.26080  0.35052  0.52639  Biso   1.000  H
  H23      1.0000 0.06371  0.82498  0.13109  Biso   1.000  H
  H24      1.0000 0.07233  0.74780  0.08600  Biso   1.000  H
  H25      1.0000 0.02177  0.76819  0.03173  Biso   1.000  H
  H26      1.0000 0.93130  0.66909  0.00274  Biso   1.000  H
  H27      1.0000 0.89469  0.60603  0.90592  Biso   1.000  H
  H28      1.0000 0.84960  0.48828  0.88108  Biso   1.000  H
  H29      1.0000 0.87058  0.35639  0.81928  Biso   1.000  H
  H30      1.0000 0.95951  0.47681  0.90827  Biso   1.000  H
  H31      1.0000 0.90842  0.49173  0.84936  Biso   1.000  H
  C1       1.0000 0.80884  0.34156  0.89660  Biso   1.000  C
  C2       1.0000 0.73239  0.24988  0.81126  Biso   1.000  C
  C3       1.0000 0.68400  0.16962  0.71555  Biso   1.000  C
  C4       1.0000 0.71243  0.17970  0.70530  Biso   1.000  C
  C5       1.0000 0.78911  0.27177  0.79070  Biso   1.000  C
  C6       1.0000 0.83699  0.35388  0.88621  Biso   1.000  C
  C7       1.0000 0.60328  0.07688  0.62753  Biso   1.000  C
  C8       1.0000 0.97142  0.55297  0.01924  Biso   1.000  C
  C9       1.0000 0.03891  0.62073  0.11067  Biso   1.000  C
  C10      1.0000 0.01851  0.55124  0.11511  Biso   1.000  C
  C11      1.0000 0.11997  0.74599  0.19692  Biso   1.000  C
  C12      1.0000 0.13897  0.92210  0.29001  Biso   1.000  C
  C13      1.0000 0.12432  0.97638  0.25871  Biso   1.000  C
  C14      1.0000 0.19984  0.12251  0.33865  Biso   1.000  C
  C15      1.0000 0.25628  0.24009  0.44926  Biso   1.000  C
  C16      1.0000 0.16126  0.06620  0.39995  Biso   1.000  C
  C17      1.0000 0.19680  0.04150  0.40165  Biso   1.000  C
  C18      1.0000 0.27211  0.18647  0.48084  Biso   1.000  C
  C19      1.0000 0.08891  0.00114  0.25733  Biso   1.000  C
  C20      1.0000 0.14506  0.11891  0.36776  Biso   1.000  C
  C21      1.0000 0.22067  0.26462  0.44762  Biso   1.000  C
  C22      1.0000 0.95827  0.58596  0.97592  Biso   1.000  C
  C23      1.0000 0.03400  0.74144  0.06179  Biso   1.000  C
  C24      1.0000 0.90392  0.58126  0.93636  Biso   1.000  C
  C25      1.0000 0.92038  0.46942  0.88194  Biso   1.000  C
  N1       1.0000 0.91591  0.44853  0.97531  Biso   1.000  N
  N2       1.0000 0.94401  0.44726  0.03340  Biso   1.000  N
  N3       1.0000 0.16464  0.88071  0.28118  Biso   1.000  N
  O1       1.0000 0.58043  0.07927  0.64009  Biso   1.000  O
  O2       1.0000 0.55904  0.99466  0.53687  Biso   1.000  O
  O3       1.0000 0.14669  0.72255  0.19365  Biso   1.000  O
  H32      1.0000 0.16035  0.59832  0.03579  Biso   1.000  H
  H33      1.0000 0.29077  0.76050  0.18249  Biso   1.000  H
  H34      1.0000 0.32585  0.88481  0.36976  Biso   1.000  H
  H35      1.0000 0.18778  0.71931  0.21563  Biso   1.000  H
  H36      1.0000 0.49692  0.07378  0.52230  Biso   1.000  H
  H37      1.0000 0.94505  0.42716  0.82571  Biso   1.000  H
  H38      1.0000 0.77812  0.03999  0.65505  Biso   1.000  H
  H39      1.0000 0.91560  0.17655  0.76522  Biso   1.000  H
  H40      1.0000 0.91604  0.10907  0.82054  Biso   1.000  H
  H41      1.0000 0.81192  0.84043  0.68465  Biso   1.000  H
  H42      1.0000 0.77514  0.89382  0.66140  Biso   1.000  H
  H43      1.0000 0.68947  0.65527  0.49330  Biso   1.000  H
  H44      1.0000 0.79953  0.85155  0.52203  Biso   1.000  H
  H45      1.0000 0.89184  0.03634  0.65518  Biso   1.000  H
  H46      1.0000 0.79193  0.99745  0.57604  Biso   1.000  H
  H47      1.0000 0.70126  0.82913  0.51578  Biso   1.000  H
  H48      1.0000 0.68685  0.72954  0.43981  Biso   1.000  H
  H49      1.0000 0.96579  0.10286  0.80096  Biso   1.000  H
  H50      1.0000 0.92388  0.96319  0.76695  Biso   1.000  H
  H51      1.0000 0.88043  0.86333  0.63343  Biso   1.000  H
  H52      1.0000 0.79015  0.69589  0.57391  Biso   1.000  H
  H53      1.0000 0.73920  0.64948  0.47361  Biso   1.000  H
  H54      1.0000 0.93629  0.17502  0.86891  Biso   1.000  H
  H55      1.0000 0.92767  0.25220  0.91400  Biso   1.000  H
  H56      1.0000 0.97823  0.23181  0.96827  Biso   1.000  H
  H57      1.0000 0.06870  0.33091  0.99726  Biso   1.000  H
  H58      1.0000 0.10531  0.39397  0.09408  Biso   1.000  H
  H59      1.0000 0.15040  0.51172  0.11892  Biso   1.000  H
  H60      1.0000 0.12942  0.64361  0.18072  Biso   1.000  H
  H61      1.0000 0.04049  0.52319  0.09173  Biso   1.000  H
  H62      1.0000 0.09158  0.50827  0.15064  Biso   1.000  H
  C26      1.0000 0.19116  0.65844  0.10340  Biso   1.000  C
  C27      1.0000 0.26761  0.75012  0.18874  Biso   1.000  C
  C28      1.0000 0.31600  0.83038  0.28445  Biso   1.000  C
  C29      1.0000 0.28757  0.82030  0.29470  Biso   1.000  C
  C30      1.0000 0.21089  0.72823  0.20930  Biso   1.000  C
  C31      1.0000 0.16301  0.64612  0.11379  Biso   1.000  C
  C32      1.0000 0.39672  0.92312  0.37247  Biso   1.000  C
  C33      1.0000 0.02858  0.44703  0.98076  Biso   1.000  C
  C34      1.0000 0.96109  0.37927  0.88933  Biso   1.000  C
  C35      1.0000 0.98149  0.44876  0.88489  Biso   1.000  C
  C36      1.0000 0.88003  0.25401  0.80308  Biso   1.000  C
  C37      1.0000 0.86103  0.07790  0.70999  Biso   1.000  C
  C38      1.0000 0.87568  0.02362  0.74129  Biso   1.000  C
  C39      1.0000 0.80016  0.87749  0.66135  Biso   1.000  C
  C40      1.0000 0.74372  0.75991  0.55074  Biso   1.000  C
  C41      1.0000 0.83874  0.93380  0.60005  Biso   1.000  C
  C42      1.0000 0.80320  0.95850  0.59835  Biso   1.000  C
  C43      1.0000 0.72789  0.81353  0.51916  Biso   1.000  C
  C44      1.0000 0.91109  0.99886  0.74267  Biso   1.000  C
  C45      1.0000 0.85494  0.88109  0.63224  Biso   1.000  C
  C46      1.0000 0.77933  0.73538  0.55238  Biso   1.000  C
  C47      1.0000 0.04173  0.41404  0.02408  Biso   1.000  C
  C48      1.0000 0.96600  0.25856  0.93821  Biso   1.000  C
  C49      1.0000 0.09608  0.41874  0.06364  Biso   1.000  C
  C50      1.0000 0.07962  0.53058  0.11806  Biso   1.000  C
  N4       1.0000 0.08409  0.55147  0.02469  Biso   1.000  N
  N5       1.0000 0.05599  0.55274  0.96660  Biso   1.000  N
  N6       1.0000 0.83536  0.11929  0.71882  Biso   1.000  N
  O4       1.0000 0.41957  0.92073  0.35991  Biso   1.000  O
  O5       1.0000 0.44096  0.00534  0.46313  Biso   1.000  O
  O6       1.0000 0.85331  0.27745  0.80635  Biso   1.000  O
