data_image0
_cell_length_a       13.2062
_cell_length_b       15.3741
_cell_length_c       9.54281
_cell_angle_alpha    52.3851
_cell_angle_beta     120.087
_cell_angle_gamma    83.2427

_symmetry_space_group_name_H-M    "P 1"
_symmetry_int_tables_number       1

loop_
  _symmetry_equiv_pos_as_xyz
  'x, y, z'

loop_
  _atom_site_label
  _atom_site_occupancy
  _atom_site_fract_x
  _atom_site_fract_y
  _atom_site_fract_z
  _atom_site_thermal_displace_type
  _atom_site_B_iso_or_equiv
  _atom_site_type_symbol
  H1       1.0000 0.58423  0.41437  0.73291  Biso   1.000  H
  H2       1.0000 0.78484  0.40904  0.76560  Biso   1.000  H
  H3       1.0000 0.92601  0.04288  0.98969  Biso   1.000  H
  H4       1.0000 0.72549  0.04859  0.95595  Biso   1.000  H
  H5       1.0000 0.15910  0.12639  0.98668  Biso   1.000  H
  H6       1.0000 0.18195  0.40874  0.45109  Biso   1.000  H
  H7       1.0000 0.19872  0.26226  0.99646  Biso   1.000  H
  H8       1.0000 0.42740  0.30018  0.05575  Biso   1.000  H
  H9       1.0000 0.42019  0.22020  0.36797  Biso   1.000  H
  H10      1.0000 0.21157  0.39188  0.21552  Biso   1.000  H
  H11      1.0000 0.14425  0.34801  0.07339  Biso   1.000  H
  H12      1.0000 0.97535  0.60583  0.73933  Biso   1.000  H
  H13      1.0000 0.19636  0.68402  0.53871  Biso   1.000  H
  H14      1.0000 0.37922  0.52605  0.79645  Biso   1.000  H
  H15      1.0000 0.19207  0.50535  0.58535  Biso   1.000  H
  H16      1.0000 0.01067  0.51594  0.60589  Biso   1.000  H
  H17      1.0000 0.98005  0.67775  0.42724  Biso   1.000  H
  H18      1.0000 0.51526  0.35556  0.26345  Biso   1.000  H
  H19      1.0000 0.42552  0.39627  0.32661  Biso   1.000  H
  H20      1.0000 0.34487  0.61420  0.93159  Biso   1.000  H
  H21      1.0000 0.16528  0.62209  0.95750  Biso   1.000  H
  H22      1.0000 0.06978  0.74191  0.63208  Biso   1.000  H
  H23      1.0000 0.69398  0.87970  0.33110  Biso   1.000  H
  H24      1.0000 0.81387  0.92036  0.32628  Biso   1.000  H
  H25      1.0000 0.85619  0.81438  0.60903  Biso   1.000  H
  H26      1.0000 0.56574  0.96047  0.40687  Biso   1.000  H
  H27      1.0000 0.73674  0.90338  0.65679  Biso   1.000  H
  H28      1.0000 0.57427  0.07845  0.39905  Biso   1.000  H
  H29      1.0000 0.71629  0.16243  0.32390  Biso   1.000  H
  H30      1.0000 0.81782  0.09567  0.29979  Biso   1.000  H
  H31      1.0000 0.87335  0.98274  0.59456  Biso   1.000  H
  C1       1.0000 0.66063  0.33274  0.79144  Biso   1.000  C
  C2       1.0000 0.77242  0.32975  0.80956  Biso   1.000  C
  C3       1.0000 0.86994  0.22427  0.88466  Biso   1.000  C
  C4       1.0000 0.85286  0.12316  0.93681  Biso   1.000  C
  C5       1.0000 0.74118  0.12539  0.91963  Biso   1.000  C
  C6       1.0000 0.64761  0.22885  0.85134  Biso   1.000  C
  C7       1.0000 0.99108  0.22255  0.90999  Biso   1.000  C
  C8       1.0000 0.53556  0.15615  0.01727  Biso   1.000  C
  C9       1.0000 0.38661  0.21938  0.88085  Biso   1.000  C
  C10      1.0000 0.30224  0.33406  0.61690  Biso   1.000  C
  C11      1.0000 0.31246  0.19258  0.96252  Biso   1.000  C
  C12      1.0000 0.31997  0.34437  0.98791  Biso   1.000  C
  C13      1.0000 0.34161  0.33173  0.17565  Biso   1.000  C
  C14      1.0000 0.19196  0.40112  0.07920  Biso   1.000  C
  C15      1.0000 0.08263  0.55607  0.80864  Biso   1.000  C
  C16      1.0000 0.27331  0.57328  0.73187  Biso   1.000  C
  C17      1.0000 0.20791  0.49940  0.71626  Biso   1.000  C
  C18      1.0000 0.05872  0.56727  0.62130  Biso   1.000  C
  C19      1.0000 0.40677  0.40599  0.19016  Biso   1.000  C
  C20      1.0000 0.29796  0.56124  0.92035  Biso   1.000  C
  C21      1.0000 0.14817  0.63012  0.82377  Biso   1.000  C
  C22      1.0000 0.67636  0.03339  0.30604  Biso   1.000  C
  C23      1.0000 0.76496  0.90467  0.39667  Biso   1.000  C
  C24      1.0000 0.63418  0.99260  0.44877  Biso   1.000  C
  C25      1.0000 0.77634  0.07187  0.38352  Biso   1.000  C
  N1       1.0000 0.53077  0.23510  0.82942  Biso   1.000  N
  N2       1.0000 0.38935  0.34431  0.58513  Biso   1.000  N
  N3       1.0000 0.27393  0.26221  0.98824  Biso   1.000  N
  O1       1.0000 0.00613  0.31195  0.86510  Biso   1.000  O
  O2       1.0000 0.08076  0.11872  0.98603  Biso   1.000  O
  O3       1.0000 0.27612  0.11551  0.98430  Biso   1.000  O
  H32      1.0000 0.41577  0.58563  0.26709  Biso   1.000  H
  H33      1.0000 0.21516  0.59096  0.23440  Biso   1.000  H
  H34      1.0000 0.07399  0.95712  0.01031  Biso   1.000  H
  H35      1.0000 0.27451  0.95141  0.04405  Biso   1.000  H
  H36      1.0000 0.84090  0.87361  0.01332  Biso   1.000  H
  H37      1.0000 0.81805  0.59126  0.54891  Biso   1.000  H
  H38      1.0000 0.80128  0.73774  0.00354  Biso   1.000  H
  H39      1.0000 0.57260  0.69982  0.94425  Biso   1.000  H
  H40      1.0000 0.57981  0.77980  0.63203  Biso   1.000  H
  H41      1.0000 0.78843  0.60812  0.78448  Biso   1.000  H
  H42      1.0000 0.85575  0.65199  0.92661  Biso   1.000  H
  H43      1.0000 0.02465  0.39417  0.26067  Biso   1.000  H
  H44      1.0000 0.80364  0.31598  0.46129  Biso   1.000  H
  H45      1.0000 0.62078  0.47395  0.20355  Biso   1.000  H
  H46      1.0000 0.80793  0.49465  0.41465  Biso   1.000  H
  H47      1.0000 0.98933  0.48406  0.39411  Biso   1.000  H
  H48      1.0000 0.01995  0.32225  0.57276  Biso   1.000  H
  H49      1.0000 0.48474  0.64444  0.73655  Biso   1.000  H
  H50      1.0000 0.57448  0.60373  0.67339  Biso   1.000  H
  H51      1.0000 0.65513  0.38580  0.06841  Biso   1.000  H
  H52      1.0000 0.83472  0.37791  0.04250  Biso   1.000  H
  H53      1.0000 0.93022  0.25809  0.36792  Biso   1.000  H
  H54      1.0000 0.30602  0.12030  0.66890  Biso   1.000  H
  H55      1.0000 0.18613  0.07964  0.67372  Biso   1.000  H
  H56      1.0000 0.14381  0.18562  0.39097  Biso   1.000  H
  H57      1.0000 0.43426  0.03953  0.59313  Biso   1.000  H
  H58      1.0000 0.26326  0.09662  0.34321  Biso   1.000  H
  H59      1.0000 0.42573  0.92155  0.60095  Biso   1.000  H
  H60      1.0000 0.28371  0.83757  0.67610  Biso   1.000  H
  H61      1.0000 0.18218  0.90433  0.70021  Biso   1.000  H
  H62      1.0000 0.12665  0.01726  0.40544  Biso   1.000  H
  C26      1.0000 0.33937  0.66726  0.20856  Biso   1.000  C
  C27      1.0000 0.22758  0.67025  0.19044  Biso   1.000  C
  C28      1.0000 0.13006  0.77573  0.11534  Biso   1.000  C
  C29      1.0000 0.14714  0.87684  0.06319  Biso   1.000  C
  C30      1.0000 0.25882  0.87461  0.08037  Biso   1.000  C
  C31      1.0000 0.35239  0.77115  0.14866  Biso   1.000  C
  C32      1.0000 0.00892  0.77745  0.09001  Biso   1.000  C
  C33      1.0000 0.46444  0.84385  0.98273  Biso   1.000  C
  C34      1.0000 0.61339  0.78062  0.11915  Biso   1.000  C
  C35      1.0000 0.69776  0.66594  0.38310  Biso   1.000  C
  C36      1.0000 0.68754  0.80742  0.03748  Biso   1.000  C
  C37      1.0000 0.68003  0.65563  0.01209  Biso   1.000  C
  C38      1.0000 0.65839  0.66827  0.82435  Biso   1.000  C
  C39      1.0000 0.80804  0.59888  0.92080  Biso   1.000  C
  C40      1.0000 0.91737  0.44393  0.19136  Biso   1.000  C
  C41      1.0000 0.72669  0.42672  0.26813  Biso   1.000  C
  C42      1.0000 0.79209  0.50060  0.28374  Biso   1.000  C
  C43      1.0000 0.94128  0.43273  0.37870  Biso   1.000  C
  C44      1.0000 0.59323  0.59401  0.80984  Biso   1.000  C
  C45      1.0000 0.70204  0.43876  0.07965  Biso   1.000  C
  C46      1.0000 0.85183  0.36988  0.17623  Biso   1.000  C
  C47      1.0000 0.32364  0.96661  0.69396  Biso   1.000  C
  C48      1.0000 0.23504  0.09533  0.60333  Biso   1.000  C
  C49      1.0000 0.36582  0.00740  0.55123  Biso   1.000  C
  C50      1.0000 0.22366  0.92813  0.61648  Biso   1.000  C
  N4       1.0000 0.46923  0.76490  0.17058  Biso   1.000  N
  N5       1.0000 0.61065  0.65569  0.41487  Biso   1.000  N
  N6       1.0000 0.72607  0.73779  0.01176  Biso   1.000  N
  O4       1.0000 0.99387  0.68805  0.13490  Biso   1.000  O
  O5       1.0000 0.91924  0.88128  0.01397  Biso   1.000  O
  O6       1.0000 0.72388  0.88449  0.01570  Biso   1.000  O
