data_image0
_cell_length_a       6.92553
_cell_length_b       9.70755
_cell_length_c       17.8236
_cell_angle_alpha    90
_cell_angle_beta     92.7217
_cell_angle_gamma    90

_symmetry_space_group_name_H-M    "P 1"
_symmetry_int_tables_number       1

loop_
  _symmetry_equiv_pos_as_xyz
  'x, y, z'

loop_
  _atom_site_label
  _atom_site_occupancy
  _atom_site_fract_x
  _atom_site_fract_y
  _atom_site_fract_z
  _atom_site_thermal_displace_type
  _atom_site_B_iso_or_equiv
  _atom_site_type_symbol
  C1       1.0000 0.80127  0.25228  0.80249  Biso   1.000  C
  C2       1.0000 0.63183  0.27681  0.74331  Biso   1.000  C
  C3       1.0000 0.51287  0.40233  0.76752  Biso   1.000  C
  C4       1.0000 0.46696  0.39660  0.85076  Biso   1.000  C
  C5       1.0000 0.64907  0.35862  0.89911  Biso   1.000  C
  C6       1.0000 0.82079  0.45515  0.88279  Biso   1.000  C
  C7       1.0000 0.92216  0.38376  0.81871  Biso   1.000  C
  C8       1.0000 0.26314  0.53786  0.70601  Biso   1.000  C
  C9       1.0000 0.08597  0.53567  0.65488  Biso   1.000  C
  C10      1.0000 0.98874  0.41112  0.63948  Biso   1.000  C
  C11      1.0000 0.82702  0.40704  0.58998  Biso   1.000  C
  C12      1.0000 0.76099  0.52804  0.55522  Biso   1.000  C
  C13      1.0000 0.85479  0.65309  0.57054  Biso   1.000  C
  C14      1.0000 0.01643  0.65711  0.62021  Biso   1.000  C
  C15      1.0000 0.51831  0.14198  0.73754  Biso   1.000  C
  C16      1.0000 0.55274  0.90140  0.71541  Biso   1.000  C
  C17      1.0000 0.84456  0.15184  0.92901  Biso   1.000  C
  N1       1.0000 0.71117  0.21951  0.87446  Biso   1.000  N
  O1       1.0000 0.33571  0.41005  0.72094  Biso   1.000  O
  O2       1.0000 0.34077  0.64327  0.73175  Biso   1.000  O
  O3       1.0000 0.34871  0.12359  0.75216  Biso   1.000  O
  O4       1.0000 0.63386  0.03631  0.71661  Biso   1.000  O
  H1       1.0000 0.88912  0.16498  0.78472  Biso   1.000  H
  H2       1.0000 0.69122  0.29802  0.68810  Biso   1.000  H
  H3       1.0000 0.59603  0.49735  0.75669  Biso   1.000  H
  H4       1.0000 0.40773  0.49573  0.86806  Biso   1.000  H
  H5       1.0000 0.35610  0.31835  0.85883  Biso   1.000  H
  H6       1.0000 0.61646  0.35670  0.95894  Biso   1.000  H
  H7       1.0000 0.91850  0.46725  0.93244  Biso   1.000  H
  H8       1.0000 0.76969  0.55783  0.86670  Biso   1.000  H
  H9       1.0000 0.93170  0.44843  0.76881  Biso   1.000  H
  H10      1.0000 0.07073  0.35525  0.83626  Biso   1.000  H
  H11      1.0000 0.04278  0.31786  0.66673  Biso   1.000  H
  H12      1.0000 0.75238  0.31033  0.57732  Biso   1.000  H
  H13      1.0000 0.63570  0.52414  0.51631  Biso   1.000  H
  H14      1.0000 0.80119  0.74683  0.54336  Biso   1.000  H
  H15      1.0000 0.09239  0.75343  0.63180  Biso   1.000  H
  H16      1.0000 0.66901  0.82899  0.70443  Biso   1.000  H
  H17      1.0000 0.43810  0.89309  0.67080  Biso   1.000  H
  H18      1.0000 0.49085  0.87762  0.76954  Biso   1.000  H
  H19      1.0000 0.89500  0.05495  0.90544  Biso   1.000  H
  H20      1.0000 0.76939  0.12901  0.98010  Biso   1.000  H
  H21      1.0000 0.97309  0.21447  0.94502  Biso   1.000  H
  C18      1.0000 0.19873  0.75228  0.19751  Biso   1.000  C
  C19      1.0000 0.36817  0.77681  0.25669  Biso   1.000  C
  C20      1.0000 0.48713  0.90233  0.23248  Biso   1.000  C
  C21      1.0000 0.53304  0.89660  0.14924  Biso   1.000  C
  C22      1.0000 0.35093  0.85862  0.10089  Biso   1.000  C
  C23      1.0000 0.17921  0.95515  0.11721  Biso   1.000  C
  C24      1.0000 0.07784  0.88376  0.18129  Biso   1.000  C
  C25      1.0000 0.73686  0.03786  0.29399  Biso   1.000  C
  C26      1.0000 0.91403  0.03567  0.34512  Biso   1.000  C
  C27      1.0000 0.01126  0.91112  0.36052  Biso   1.000  C
  C28      1.0000 0.17298  0.90704  0.41002  Biso   1.000  C
  C29      1.0000 0.23901  0.02804  0.44478  Biso   1.000  C
  C30      1.0000 0.14521  0.15309  0.42946  Biso   1.000  C
  C31      1.0000 0.98357  0.15711  0.37979  Biso   1.000  C
  C32      1.0000 0.48169  0.64198  0.26246  Biso   1.000  C
  C33      1.0000 0.44726  0.40140  0.28459  Biso   1.000  C
  C34      1.0000 0.15544  0.65184  0.07099  Biso   1.000  C
  N2       1.0000 0.28883  0.71951  0.12554  Biso   1.000  N
  O5       1.0000 0.66429  0.91005  0.27906  Biso   1.000  O
  O6       1.0000 0.65923  0.14327  0.26825  Biso   1.000  O
  O7       1.0000 0.65129  0.62359  0.24784  Biso   1.000  O
  O8       1.0000 0.36614  0.53631  0.28339  Biso   1.000  O
  H22      1.0000 0.11088  0.66498  0.21528  Biso   1.000  H
  H23      1.0000 0.30878  0.79802  0.31190  Biso   1.000  H
  H24      1.0000 0.40397  0.99735  0.24331  Biso   1.000  H
  H25      1.0000 0.59227  0.99573  0.13194  Biso   1.000  H
  H26      1.0000 0.64390  0.81835  0.14117  Biso   1.000  H
  H27      1.0000 0.38354  0.85670  0.04106  Biso   1.000  H
  H28      1.0000 0.08150  0.96725  0.06756  Biso   1.000  H
  H29      1.0000 0.23031  0.05783  0.13330  Biso   1.000  H
  H30      1.0000 0.06830  0.94843  0.23119  Biso   1.000  H
  H31      1.0000 0.92927  0.85525  0.16374  Biso   1.000  H
  H32      1.0000 0.95722  0.81786  0.33327  Biso   1.000  H
  H33      1.0000 0.24762  0.81033  0.42268  Biso   1.000  H
  H34      1.0000 0.36430  0.02414  0.48369  Biso   1.000  H
  H35      1.0000 0.19881  0.24683  0.45664  Biso   1.000  H
  H36      1.0000 0.90761  0.25343  0.36820  Biso   1.000  H
  H37      1.0000 0.33099  0.32899  0.29557  Biso   1.000  H
  H38      1.0000 0.56190  0.39309  0.32920  Biso   1.000  H
  H39      1.0000 0.50915  0.37762  0.23046  Biso   1.000  H
  H40      1.0000 0.10500  0.55495  0.09456  Biso   1.000  H
  H41      1.0000 0.23061  0.62901  0.01990  Biso   1.000  H
  H42      1.0000 0.02691  0.71447  0.05498  Biso   1.000  H
