data_image0
_cell_length_a       6.92553
_cell_length_b       9.04535
_cell_length_c       17.8236
_cell_angle_alpha    90
_cell_angle_beta     92.104
_cell_angle_gamma    90

_symmetry_space_group_name_H-M    "P 1"
_symmetry_int_tables_number       1

loop_
  _symmetry_equiv_pos_as_xyz
  'x, y, z'

loop_
  _atom_site_label
  _atom_site_occupancy
  _atom_site_fract_x
  _atom_site_fract_y
  _atom_site_fract_z
  _atom_site_thermal_displace_type
  _atom_site_B_iso_or_equiv
  _atom_site_type_symbol
  C1       1.0000 0.31604  0.49697  0.60641  Biso   1.000  C
  C2       1.0000 0.46559  0.48205  0.67347  Biso   1.000  C
  C3       1.0000 0.37498  0.39055  0.73627  Biso   1.000  C
  C4       1.0000 0.16961  0.44165  0.75250  Biso   1.000  C
  C5       1.0000 0.05046  0.46286  0.67875  Biso   1.000  C
  C6       1.0000 0.05640  0.32272  0.62861  Biso   1.000  C
  C7       1.0000 0.23276  0.34613  0.58035  Biso   1.000  C
  C8       1.0000 0.50286  0.27931  0.84958  Biso   1.000  C
  C9       1.0000 0.64005  0.29640  0.91563  Biso   1.000  C
  C10      1.0000 0.71826  0.43569  0.93385  Biso   1.000  C
  C11      1.0000 0.85117  0.45218  0.99383  Biso   1.000  C
  C12      1.0000 0.90751  0.32889  0.03625  Biso   1.000  C
  C13      1.0000 0.82953  0.18978  0.01938  Biso   1.000  C
  C14      1.0000 0.69620  0.17344  0.95942  Biso   1.000  C
  C15      1.0000 0.52325  0.63923  0.69628  Biso   1.000  C
  C16      1.0000 0.64492  0.86531  0.64831  Biso   1.000  C
  C17      1.0000 0.02452  0.64368  0.57538  Biso   1.000  C
  N1       1.0000 0.14864  0.57971  0.63525  Biso   1.000  N
  O1       1.0000 0.49797  0.39960  0.80375  Biso   1.000  O
  O2       1.0000 0.40499  0.16786  0.83589  Biso   1.000  O
  O3       1.0000 0.49952  0.69935  0.75703  Biso   1.000  O
  O4       1.0000 0.60022  0.71281  0.63765  Biso   1.000  O
  H1       1.0000 0.38118  0.55916  0.56082  Biso   1.000  H
  H2       1.0000 0.59557  0.42456  0.65442  Biso   1.000  H
  H3       1.0000 0.37162  0.27272  0.71904  Biso   1.000  H
  H4       1.0000 0.10101  0.36138  0.78911  Biso   1.000  H
  H5       1.0000 0.17645  0.54714  0.78255  Biso   1.000  H
  H6       1.0000 0.90222  0.49729  0.69059  Biso   1.000  H
  H7       1.0000 0.92378  0.31152  0.59375  Biso   1.000  H
  H8       1.0000 0.07030  0.22283  0.66274  Biso   1.000  H
  H9       1.0000 0.33947  0.25744  0.58629  Biso   1.000  H
  H10      1.0000 0.18986  0.35153  0.52057  Biso   1.000  H
  H11      1.0000 0.67354  0.53026  0.89998  Biso   1.000  H
  H12      1.0000 0.91362  0.55985  0.00766  Biso   1.000  H
  H13      1.0000 0.01210  0.34217  0.08261  Biso   1.000  H
  H14      1.0000 0.87392  0.09466  0.05316  Biso   1.000  H
  H15      1.0000 0.63649  0.06543  0.94504  Biso   1.000  H
  H16      1.0000 0.68749  0.90946  0.59425  Biso   1.000  H
  H17      1.0000 0.76458  0.87837  0.69005  Biso   1.000  H
  H18      1.0000 0.51849  0.92543  0.66792  Biso   1.000  H
  H19      1.0000 0.10864  0.72083  0.54240  Biso   1.000  H
  H20      1.0000 0.90608  0.70432  0.60010  Biso   1.000  H
  H21      1.0000 0.96077  0.56063  0.53641  Biso   1.000  H
  C18      1.0000 0.68396  0.99697  0.39359  Biso   1.000  C
  C19      1.0000 0.53441  0.98205  0.32653  Biso   1.000  C
  C20      1.0000 0.62502  0.89055  0.26373  Biso   1.000  C
  C21      1.0000 0.83039  0.94165  0.24750  Biso   1.000  C
  C22      1.0000 0.94954  0.96286  0.32125  Biso   1.000  C
  C23      1.0000 0.94360  0.82272  0.37139  Biso   1.000  C
  C24      1.0000 0.76724  0.84613  0.41965  Biso   1.000  C
  C25      1.0000 0.49714  0.77931  0.15042  Biso   1.000  C
  C26      1.0000 0.35995  0.79640  0.08437  Biso   1.000  C
  C27      1.0000 0.28174  0.93569  0.06615  Biso   1.000  C
  C28      1.0000 0.14883  0.95218  0.00617  Biso   1.000  C
  C29      1.0000 0.09249  0.82889  0.96375  Biso   1.000  C
  C30      1.0000 0.17047  0.68978  0.98062  Biso   1.000  C
  C31      1.0000 0.30380  0.67344  0.04058  Biso   1.000  C
  C32      1.0000 0.47675  0.13923  0.30372  Biso   1.000  C
  C33      1.0000 0.35508  0.36531  0.35169  Biso   1.000  C
  C34      1.0000 0.97548  0.14368  0.42462  Biso   1.000  C
  N2       1.0000 0.85136  0.07971  0.36475  Biso   1.000  N
  O5       1.0000 0.50203  0.89960  0.19625  Biso   1.000  O
  O6       1.0000 0.59501  0.66786  0.16411  Biso   1.000  O
  O7       1.0000 0.50048  0.19935  0.24297  Biso   1.000  O
  O8       1.0000 0.39978  0.21281  0.36235  Biso   1.000  O
  H22      1.0000 0.61882  0.05916  0.43918  Biso   1.000  H
  H23      1.0000 0.40443  0.92456  0.34558  Biso   1.000  H
  H24      1.0000 0.62838  0.77272  0.28096  Biso   1.000  H
  H25      1.0000 0.89899  0.86138  0.21089  Biso   1.000  H
  H26      1.0000 0.82355  0.04714  0.21745  Biso   1.000  H
  H27      1.0000 0.09778  0.99729  0.30941  Biso   1.000  H
  H28      1.0000 0.07622  0.81152  0.40625  Biso   1.000  H
  H29      1.0000 0.92970  0.72283  0.33726  Biso   1.000  H
  H30      1.0000 0.66053  0.75744  0.41371  Biso   1.000  H
  H31      1.0000 0.81014  0.85153  0.47943  Biso   1.000  H
  H32      1.0000 0.32646  0.03026  0.10002  Biso   1.000  H
  H33      1.0000 0.08638  0.05985  0.99234  Biso   1.000  H
  H34      1.0000 0.98790  0.84217  0.91739  Biso   1.000  H
  H35      1.0000 0.12608  0.59466  0.94684  Biso   1.000  H
  H36      1.0000 0.36351  0.56543  0.05496  Biso   1.000  H
  H37      1.0000 0.31251  0.40946  0.40575  Biso   1.000  H
  H38      1.0000 0.23542  0.37837  0.30995  Biso   1.000  H
  H39      1.0000 0.48151  0.42543  0.33208  Biso   1.000  H
  H40      1.0000 0.89136  0.22083  0.45760  Biso   1.000  H
  H41      1.0000 0.09392  0.20432  0.39990  Biso   1.000  H
  H42      1.0000 0.03923  0.06063  0.46359  Biso   1.000  H
