data_image0
_cell_length_a       12.4593
_cell_length_b       14.3393
_cell_length_c       6.5023
_cell_angle_alpha    90
_cell_angle_beta     104.685
_cell_angle_gamma    90

_symmetry_space_group_name_H-M    "P 1"
_symmetry_int_tables_number       1

loop_
  _symmetry_equiv_pos_as_xyz
  'x, y, z'

loop_
  _atom_site_label
  _atom_site_occupancy
  _atom_site_fract_x
  _atom_site_fract_y
  _atom_site_fract_z
  _atom_site_thermal_displace_type
  _atom_site_B_iso_or_equiv
  _atom_site_type_symbol
  C1       1.0000 0.12047  0.16991  0.80988  Biso   1.000  C
  C2       1.0000 0.03736  0.10701  0.64921  Biso   1.000  C
  C3       1.0000 0.91836  0.14343  0.62697  Biso   1.000  C
  C4       1.0000 0.89498  0.16385  0.84297  Biso   1.000  C
  C5       1.0000 0.99141  0.21923  0.98522  Biso   1.000  C
  C6       1.0000 0.01859  0.30774  0.87050  Biso   1.000  C
  C7       1.0000 0.10481  0.27474  0.75481  Biso   1.000  C
  C8       1.0000 0.74273  0.10954  0.38578  Biso   1.000  C
  C9       1.0000 0.66940  0.03514  0.26438  Biso   1.000  C
  C10      1.0000 0.69187  0.94079  0.31583  Biso   1.000  C
  C11      1.0000 0.62621  0.87065  0.19932  Biso   1.000  C
  C12      1.0000 0.53720  0.89437  0.02935  Biso   1.000  C
  C13      1.0000 0.51297  0.98794  0.97747  Biso   1.000  C
  C14      1.0000 0.57860  0.05810  0.09445  Biso   1.000  C
  C15      1.0000 0.05724  0.00726  0.73276  Biso   1.000  C
  C16      1.0000 0.19814  0.89232  0.84353  Biso   1.000  C
  C17      1.0000 0.18216  0.18958  0.19817  Biso   1.000  C
  N1       1.0000 0.09237  0.15974  0.01783  Biso   1.000  N
  O1       1.0000 0.83959  0.07577  0.51015  Biso   1.000  O
  O2       1.0000 0.72074  0.19360  0.37449  Biso   1.000  O
  O3       1.0000 0.99081  0.95602  0.78853  Biso   1.000  O
  O4       1.0000 0.16425  0.98079  0.74951  Biso   1.000  O
  H1       1.0000 0.20556  0.14564  0.82281  Biso   1.000  H
  H2       1.0000 0.05665  0.11013  0.49278  Biso   1.000  H
  H3       1.0000 0.90683  0.20813  0.53035  Biso   1.000  H
  H4       1.0000 0.81646  0.20182  0.81959  Biso   1.000  H
  H5       1.0000 0.88584  0.09801  0.92191  Biso   1.000  H
  H6       1.0000 0.97365  0.23507  0.13891  Biso   1.000  H
  H7       1.0000 0.05184  0.36337  0.98408  Biso   1.000  H
  H8       1.0000 0.94425  0.33515  0.75998  Biso   1.000  H
  H9       1.0000 0.07930  0.28664  0.58322  Biso   1.000  H
  H10      1.0000 0.18380  0.31153  0.81379  Biso   1.000  H
  H11      1.0000 0.76183  0.92361  0.44789  Biso   1.000  H
  H12      1.0000 0.64409  0.79733  0.23748  Biso   1.000  H
  H13      1.0000 0.48675  0.83943  0.93819  Biso   1.000  H
  H14      1.0000 0.44294  0.00550  0.84522  Biso   1.000  H
  H15      1.0000 0.56159  0.13115  0.05382  Biso   1.000  H
  H16      1.0000 0.28759  0.88634  0.86222  Biso   1.000  H
  H17      1.0000 0.15508  0.83585  0.74066  Biso   1.000  H
  H18      1.0000 0.17914  0.88678  0.99911  Biso   1.000  H
  H19      1.0000 0.25612  0.14742  0.20446  Biso   1.000  H
  H20      1.0000 0.15705  0.17934  0.34589  Biso   1.000  H
  H21      1.0000 0.20540  0.26356  0.19037  Biso   1.000  H
  C18      1.0000 0.87953  0.66991  0.19012  Biso   1.000  C
  C19      1.0000 0.96264  0.60701  0.35079  Biso   1.000  C
  C20      1.0000 0.08164  0.64343  0.37303  Biso   1.000  C
  C21      1.0000 0.10502  0.66385  0.15703  Biso   1.000  C
  C22      1.0000 0.00859  0.71923  0.01478  Biso   1.000  C
  C23      1.0000 0.98141  0.80774  0.12950  Biso   1.000  C
  C24      1.0000 0.89519  0.77474  0.24519  Biso   1.000  C
  C25      1.0000 0.25727  0.60954  0.61422  Biso   1.000  C
  C26      1.0000 0.33060  0.53514  0.73562  Biso   1.000  C
  C27      1.0000 0.30813  0.44079  0.68417  Biso   1.000  C
  C28      1.0000 0.37379  0.37065  0.80068  Biso   1.000  C
  C29      1.0000 0.46280  0.39437  0.97065  Biso   1.000  C
  C30      1.0000 0.48703  0.48794  0.02253  Biso   1.000  C
  C31      1.0000 0.42140  0.55810  0.90555  Biso   1.000  C
  C32      1.0000 0.94276  0.50726  0.26724  Biso   1.000  C
  C33      1.0000 0.80186  0.39232  0.15647  Biso   1.000  C
  C34      1.0000 0.81784  0.68958  0.80183  Biso   1.000  C
  N2       1.0000 0.90763  0.65974  0.98217  Biso   1.000  N
  O5       1.0000 0.16041  0.57577  0.48985  Biso   1.000  O
  O6       1.0000 0.27926  0.69360  0.62551  Biso   1.000  O
  O7       1.0000 0.00919  0.45602  0.21147  Biso   1.000  O
  O8       1.0000 0.83575  0.48079  0.25049  Biso   1.000  O
  H22      1.0000 0.79444  0.64564  0.17719  Biso   1.000  H
  H23      1.0000 0.94335  0.61013  0.50722  Biso   1.000  H
  H24      1.0000 0.09317  0.70813  0.46965  Biso   1.000  H
  H25      1.0000 0.18354  0.70182  0.18041  Biso   1.000  H
  H26      1.0000 0.11416  0.59801  0.07809  Biso   1.000  H
  H27      1.0000 0.02635  0.73507  0.86109  Biso   1.000  H
  H28      1.0000 0.94816  0.86337  0.01592  Biso   1.000  H
  H29      1.0000 0.05575  0.83515  0.24002  Biso   1.000  H
  H30      1.0000 0.92070  0.78664  0.41678  Biso   1.000  H
  H31      1.0000 0.81620  0.81153  0.18621  Biso   1.000  H
  H32      1.0000 0.23817  0.42361  0.55211  Biso   1.000  H
  H33      1.0000 0.35591  0.29733  0.76252  Biso   1.000  H
  H34      1.0000 0.51325  0.33943  0.06181  Biso   1.000  H
  H35      1.0000 0.55706  0.50550  0.15478  Biso   1.000  H
  H36      1.0000 0.43841  0.63115  0.94618  Biso   1.000  H
  H37      1.0000 0.71241  0.38634  0.13778  Biso   1.000  H
  H38      1.0000 0.84492  0.33585  0.25934  Biso   1.000  H
  H39      1.0000 0.82086  0.38678  0.00089  Biso   1.000  H
  H40      1.0000 0.74388  0.64742  0.79554  Biso   1.000  H
  H41      1.0000 0.84295  0.67934  0.65411  Biso   1.000  H
  H42      1.0000 0.79460  0.76356  0.80963  Biso   1.000  H
