data_image0
_cell_length_a       12.4593
_cell_length_b       14.3393
_cell_length_c       6.5023
_cell_angle_alpha    90
_cell_angle_beta     101.278
_cell_angle_gamma    90

_symmetry_space_group_name_H-M    "P 1"
_symmetry_int_tables_number       1

loop_
  _symmetry_equiv_pos_as_xyz
  'x, y, z'

loop_
  _atom_site_label
  _atom_site_occupancy
  _atom_site_fract_x
  _atom_site_fract_y
  _atom_site_fract_z
  _atom_site_thermal_displace_type
  _atom_site_B_iso_or_equiv
  _atom_site_type_symbol
  C1       1.0000 0.13487  0.22467  0.88169  Biso   1.000  C
  C2       1.0000 0.05684  0.16177  0.72321  Biso   1.000  C
  C3       1.0000 0.93854  0.19819  0.70128  Biso   1.000  C
  C4       1.0000 0.90834  0.21861  0.91433  Biso   1.000  C
  C5       1.0000 0.00027  0.27399  0.05464  Biso   1.000  C
  C6       1.0000 0.03107  0.36250  0.94149  Biso   1.000  C
  C7       1.0000 0.12095  0.32950  0.82737  Biso   1.000  C
  C8       1.0000 0.77054  0.16430  0.46336  Biso   1.000  C
  C9       1.0000 0.70105  0.08990  0.34362  Biso   1.000  C
  C10      1.0000 0.72190  0.99555  0.39437  Biso   1.000  C
  C11      1.0000 0.65992  0.92541  0.27945  Biso   1.000  C
  C12      1.0000 0.57628  0.94913  0.11179  Biso   1.000  C
  C13      1.0000 0.55370  0.04270  0.06062  Biso   1.000  C
  C14      1.0000 0.61563  0.11286  0.17601  Biso   1.000  C
  C15      1.0000 0.07408  0.06202  0.80562  Biso   1.000  C
  C16      1.0000 0.21147  0.94708  0.91488  Biso   1.000  C
  C17      1.0000 0.18428  0.24434  0.26470  Biso   1.000  C
  N1       1.0000 0.10019  0.21450  0.08680  Biso   1.000  N
  O1       1.0000 0.86347  0.13053  0.58604  Biso   1.000  O
  O2       1.0000 0.74891  0.24836  0.45223  Biso   1.000  O
  O3       1.0000 0.00589  0.01078  0.86063  Biso   1.000  O
  O4       1.0000 0.18056  0.03555  0.82214  Biso   1.000  O
  H1       1.0000 0.21955  0.20040  0.89444  Biso   1.000  H
  H2       1.0000 0.08108  0.16489  0.56891  Biso   1.000  H
  H3       1.0000 0.93007  0.26289  0.60597  Biso   1.000  H
  H4       1.0000 0.83055  0.25658  0.89127  Biso   1.000  H
  H5       1.0000 0.89670  0.15277  0.99220  Biso   1.000  H
  H6       1.0000 0.97765  0.28983  0.20624  Biso   1.000  H
  H7       1.0000 0.06073  0.41813  0.05352  Biso   1.000  H
  H8       1.0000 0.96023  0.38991  0.83247  Biso   1.000  H
  H9       1.0000 0.10087  0.34140  0.65812  Biso   1.000  H
  H10      1.0000 0.19808  0.36629  0.88555  Biso   1.000  H
  H11      1.0000 0.78768  0.97837  0.52463  Biso   1.000  H
  H12      1.0000 0.67659  0.85209  0.31708  Biso   1.000  H
  H13      1.0000 0.52872  0.89419  0.02187  Biso   1.000  H
  H14      1.0000 0.48785  0.06026  0.93017  Biso   1.000  H
  H15      1.0000 0.59990  0.18591  0.13593  Biso   1.000  H
  H16      1.0000 0.30034  0.94110  0.93332  Biso   1.000  H
  H17      1.0000 0.17167  0.89061  0.81341  Biso   1.000  H
  H18      1.0000 0.18756  0.94154  0.06834  Biso   1.000  H
  H19      1.0000 0.25804  0.20218  0.27090  Biso   1.000  H
  H20      1.0000 0.15449  0.23410  0.41040  Biso   1.000  H
  H21      1.0000 0.20777  0.31832  0.25700  Biso   1.000  H
  C18      1.0000 0.86513  0.72467  0.11831  Biso   1.000  C
  C19      1.0000 0.94316  0.66177  0.27679  Biso   1.000  C
  C20      1.0000 0.06146  0.69819  0.29872  Biso   1.000  C
  C21      1.0000 0.09166  0.71861  0.08567  Biso   1.000  C
  C22      1.0000 0.99973  0.77399  0.94536  Biso   1.000  C
  C23      1.0000 0.96893  0.86250  0.05851  Biso   1.000  C
  C24      1.0000 0.87905  0.82950  0.17263  Biso   1.000  C
  C25      1.0000 0.22946  0.66430  0.53664  Biso   1.000  C
  C26      1.0000 0.29895  0.58990  0.65638  Biso   1.000  C
  C27      1.0000 0.27810  0.49555  0.60563  Biso   1.000  C
  C28      1.0000 0.34008  0.42541  0.72055  Biso   1.000  C
  C29      1.0000 0.42372  0.44913  0.88821  Biso   1.000  C
  C30      1.0000 0.44630  0.54270  0.93938  Biso   1.000  C
  C31      1.0000 0.38437  0.61286  0.82399  Biso   1.000  C
  C32      1.0000 0.92592  0.56202  0.19438  Biso   1.000  C
  C33      1.0000 0.78853  0.44708  0.08512  Biso   1.000  C
  C34      1.0000 0.81572  0.74434  0.73530  Biso   1.000  C
  N2       1.0000 0.89981  0.71450  0.91320  Biso   1.000  N
  O5       1.0000 0.13653  0.63053  0.41396  Biso   1.000  O
  O6       1.0000 0.25109  0.74836  0.54777  Biso   1.000  O
  O7       1.0000 0.99411  0.51078  0.13937  Biso   1.000  O
  O8       1.0000 0.81944  0.53555  0.17786  Biso   1.000  O
  H22      1.0000 0.78045  0.70040  0.10556  Biso   1.000  H
  H23      1.0000 0.91892  0.66489  0.43109  Biso   1.000  H
  H24      1.0000 0.06993  0.76289  0.39403  Biso   1.000  H
  H25      1.0000 0.16945  0.75658  0.10873  Biso   1.000  H
  H26      1.0000 0.10330  0.65277  0.00780  Biso   1.000  H
  H27      1.0000 0.02235  0.78983  0.79376  Biso   1.000  H
  H28      1.0000 0.93927  0.91813  0.94648  Biso   1.000  H
  H29      1.0000 0.03977  0.88991  0.16753  Biso   1.000  H
  H30      1.0000 0.89913  0.84140  0.34188  Biso   1.000  H
  H31      1.0000 0.80192  0.86629  0.11445  Biso   1.000  H
  H32      1.0000 0.21232  0.47837  0.47537  Biso   1.000  H
  H33      1.0000 0.32341  0.35209  0.68292  Biso   1.000  H
  H34      1.0000 0.47128  0.39419  0.97813  Biso   1.000  H
  H35      1.0000 0.51215  0.56026  0.06983  Biso   1.000  H
  H36      1.0000 0.40010  0.68591  0.86407  Biso   1.000  H
  H37      1.0000 0.69966  0.44110  0.06668  Biso   1.000  H
  H38      1.0000 0.82833  0.39061  0.18659  Biso   1.000  H
  H39      1.0000 0.81244  0.44154  0.93166  Biso   1.000  H
  H40      1.0000 0.74196  0.70218  0.72910  Biso   1.000  H
  H41      1.0000 0.84551  0.73410  0.58960  Biso   1.000  H
  H42      1.0000 0.79223  0.81832  0.74300  Biso   1.000  H
