data_image0
_cell_length_a       11.074
_cell_length_b       8.67791
_cell_length_c       14.0052
_cell_angle_alpha    90
_cell_angle_beta     110.844
_cell_angle_gamma    90

_symmetry_space_group_name_H-M    "P 1"
_symmetry_int_tables_number       1

loop_
  _symmetry_equiv_pos_as_xyz
  'x, y, z'

loop_
  _atom_site_label
  _atom_site_occupancy
  _atom_site_fract_x
  _atom_site_fract_y
  _atom_site_fract_z
  _atom_site_thermal_displace_type
  _atom_site_B_iso_or_equiv
  _atom_site_type_symbol
  C1       1.0000 0.94251  0.55425  0.73505  Biso   1.000  C
  C2       1.0000 0.93287  0.46881  0.82995  Biso   1.000  C
  C3       1.0000 0.81283  0.36321  0.79520  Biso   1.000  C
  C4       1.0000 0.69247  0.44570  0.72311  Biso   1.000  C
  C5       1.0000 0.72502  0.53472  0.64039  Biso   1.000  C
  C6       1.0000 0.79138  0.42914  0.58421  Biso   1.000  C
  C7       1.0000 0.93607  0.44296  0.64716  Biso   1.000  C
  C8       1.0000 0.73704  0.16286  0.87750  Biso   1.000  C
  C9       1.0000 0.72223  0.11124  0.97446  Biso   1.000  C
  C10      1.0000 0.73601  0.21719  0.05348  Biso   1.000  C
  C11      1.0000 0.72658  0.16948  0.14554  Biso   1.000  C
  C12      1.0000 0.70338  0.01462  0.15949  Biso   1.000  C
  C13      1.0000 0.68804  0.90800  0.08125  Biso   1.000  C
  C14      1.0000 0.69724  0.95593  0.98905  Biso   1.000  C
  C15      1.0000 0.93080  0.59348  0.90638  Biso   1.000  C
  C16      1.0000 0.04594  0.81244  0.99612  Biso   1.000  C
  C17      1.0000 0.83719  0.77426  0.62631  Biso   1.000  C
  N1       1.0000 0.82469  0.65154  0.69396  Biso   1.000  N
  O1       1.0000 0.78946  0.30604  0.88439  Biso   1.000  O
  O2       1.0000 0.70779  0.08500  0.79877  Biso   1.000  O
  O3       1.0000 0.84378  0.62000  0.93922  Biso   1.000  O
  O4       1.0000 0.03932  0.68233  0.93239  Biso   1.000  O
  H1       1.0000 0.02940  0.62698  0.75891  Biso   1.000  H
  H2       1.0000 0.02016  0.39775  0.86511  Biso   1.000  H
  H3       1.0000 0.83391  0.26145  0.75581  Biso   1.000  H
  H4       1.0000 0.61518  0.36172  0.68892  Biso   1.000  H
  H5       1.0000 0.65748  0.52735  0.76691  Biso   1.000  H
  H6       1.0000 0.63802  0.59184  0.58779  Biso   1.000  H
  H7       1.0000 0.76998  0.46697  0.50533  Biso   1.000  H
  H8       1.0000 0.75745  0.31049  0.58109  Biso   1.000  H
  H9       1.0000 0.98174  0.33218  0.67558  Biso   1.000  H
  H10      1.0000 0.98867  0.49254  0.60132  Biso   1.000  H
  H11      1.0000 0.75471  0.33708  0.04148  Biso   1.000  H
  H12      1.0000 0.73851  0.25111  0.20740  Biso   1.000  H
  H13      1.0000 0.69699  0.97786  0.23162  Biso   1.000  H
  H14      1.0000 0.66930  0.78770  0.09291  Biso   1.000  H
  H15      1.0000 0.68732  0.87372  0.92807  Biso   1.000  H
  H16      1.0000 0.13252  0.87770  0.00130  Biso   1.000  H
  H17      1.0000 0.05255  0.77504  0.07284  Biso   1.000  H
  H18      1.0000 0.95965  0.88494  0.96349  Biso   1.000  H
  H19      1.0000 0.91761  0.84985  0.66839  Biso   1.000  H
  H20      1.0000 0.74849  0.84254  0.59978  Biso   1.000  H
  H21      1.0000 0.85523  0.73133  0.55837  Biso   1.000  H
  C18      1.0000 0.05749  0.05425  0.26495  Biso   1.000  C
  C19      1.0000 0.06713  0.96881  0.17005  Biso   1.000  C
  C20      1.0000 0.18717  0.86321  0.20480  Biso   1.000  C
  C21      1.0000 0.30753  0.94570  0.27689  Biso   1.000  C
  C22      1.0000 0.27498  0.03472  0.35961  Biso   1.000  C
  C23      1.0000 0.20862  0.92914  0.41579  Biso   1.000  C
  C24      1.0000 0.06393  0.94296  0.35284  Biso   1.000  C
  C25      1.0000 0.26296  0.66286  0.12250  Biso   1.000  C
  C26      1.0000 0.27777  0.61124  0.02554  Biso   1.000  C
  C27      1.0000 0.26399  0.71719  0.94652  Biso   1.000  C
  C28      1.0000 0.27342  0.66948  0.85446  Biso   1.000  C
  C29      1.0000 0.29662  0.51462  0.84051  Biso   1.000  C
  C30      1.0000 0.31196  0.40800  0.91875  Biso   1.000  C
  C31      1.0000 0.30276  0.45593  0.01095  Biso   1.000  C
  C32      1.0000 0.06920  0.09348  0.09362  Biso   1.000  C
  C33      1.0000 0.95406  0.31244  0.00388  Biso   1.000  C
  C34      1.0000 0.16281  0.27426  0.37369  Biso   1.000  C
  N2       1.0000 0.17531  0.15154  0.30604  Biso   1.000  N
  O5       1.0000 0.21054  0.80604  0.11561  Biso   1.000  O
  O6       1.0000 0.29221  0.58500  0.20123  Biso   1.000  O
  O7       1.0000 0.15622  0.12000  0.06078  Biso   1.000  O
  O8       1.0000 0.96068  0.18233  0.06761  Biso   1.000  O
  H22      1.0000 0.97060  0.12698  0.24109  Biso   1.000  H
  H23      1.0000 0.97984  0.89775  0.13489  Biso   1.000  H
  H24      1.0000 0.16609  0.76145  0.24419  Biso   1.000  H
  H25      1.0000 0.38482  0.86172  0.31108  Biso   1.000  H
  H26      1.0000 0.34252  0.02735  0.23309  Biso   1.000  H
  H27      1.0000 0.36198  0.09184  0.41221  Biso   1.000  H
  H28      1.0000 0.23002  0.96697  0.49467  Biso   1.000  H
  H29      1.0000 0.24255  0.81049  0.41891  Biso   1.000  H
  H30      1.0000 0.01826  0.83218  0.32442  Biso   1.000  H
  H31      1.0000 0.01133  0.99254  0.39868  Biso   1.000  H
  H32      1.0000 0.24529  0.83708  0.95852  Biso   1.000  H
  H33      1.0000 0.26149  0.75111  0.79260  Biso   1.000  H
  H34      1.0000 0.30301  0.47786  0.76838  Biso   1.000  H
  H35      1.0000 0.33070  0.28770  0.90709  Biso   1.000  H
  H36      1.0000 0.31268  0.37372  0.07193  Biso   1.000  H
  H37      1.0000 0.86748  0.37770  0.99870  Biso   1.000  H
  H38      1.0000 0.94745  0.27504  0.92716  Biso   1.000  H
  H39      1.0000 0.04035  0.38494  0.03651  Biso   1.000  H
  H40      1.0000 0.08239  0.34985  0.33161  Biso   1.000  H
  H41      1.0000 0.25151  0.34254  0.40022  Biso   1.000  H
  H42      1.0000 0.14477  0.23133  0.44163  Biso   1.000  H
