data_image0
_cell_length_a       11.3991
_cell_length_b       8.67791
_cell_length_c       14.0052
_cell_angle_alpha    90
_cell_angle_beta     110.844
_cell_angle_gamma    90

_symmetry_space_group_name_H-M    "P 1"
_symmetry_int_tables_number       1

loop_
  _symmetry_equiv_pos_as_xyz
  'x, y, z'

loop_
  _atom_site_label
  _atom_site_occupancy
  _atom_site_fract_x
  _atom_site_fract_y
  _atom_site_fract_z
  _atom_site_thermal_displace_type
  _atom_site_B_iso_or_equiv
  _atom_site_type_symbol
  C1       1.0000 0.93201  0.50286  0.75436  Biso   1.000  C
  C2       1.0000 0.88783  0.47029  0.84571  Biso   1.000  C
  C3       1.0000 0.79628  0.33239  0.81858  Biso   1.000  C
  C4       1.0000 0.69663  0.34645  0.71122  Biso   1.000  C
  C5       1.0000 0.75786  0.39305  0.63378  Biso   1.000  C
  C6       1.0000 0.86765  0.28345  0.63910  Biso   1.000  C
  C7       1.0000 0.98340  0.35724  0.71907  Biso   1.000  C
  C8       1.0000 0.70630  0.17565  0.91567  Biso   1.000  C
  C9       1.0000 0.65117  0.17367  0.99774  Biso   1.000  C
  C10      1.0000 0.61232  0.31160  0.02989  Biso   1.000  C
  C11      1.0000 0.56455  0.31186  0.10864  Biso   1.000  C
  C12      1.0000 0.55534  0.17356  0.15625  Biso   1.000  C
  C13      1.0000 0.59231  0.03508  0.12446  Biso   1.000  C
  C14      1.0000 0.63988  0.03490  0.04549  Biso   1.000  C
  C15      1.0000 0.83143  0.62060  0.86660  Biso   1.000  C
  C16      1.0000 0.87565  0.88739  0.90126  Biso   1.000  C
  C17      1.0000 0.84661  0.62659  0.58539  Biso   1.000  C
  N1       1.0000 0.81786  0.54617  0.66636  Biso   1.000  N
  O1       1.0000 0.73693  0.31975  0.89426  Biso   1.000  O
  O2       1.0000 0.72529  0.06009  0.87188  Biso   1.000  O
  O3       1.0000 0.72270  0.64271  0.86086  Biso   1.000  O
  O4       1.0000 0.91773  0.73661  0.88899  Biso   1.000  O
  H1       1.0000 0.99940  0.59869  0.77408  Biso   1.000  H
  H2       1.0000 0.96997  0.44146  0.91410  Biso   1.000  H
  H3       1.0000 0.85101  0.22509  0.82349  Biso   1.000  H
  H4       1.0000 0.64563  0.23732  0.68952  Biso   1.000  H
  H5       1.0000 0.62828  0.43478  0.71159  Biso   1.000  H
  H6       1.0000 0.68642  0.40070  0.55651  Biso   1.000  H
  H7       1.0000 0.87881  0.27432  0.56485  Biso   1.000  H
  H8       1.0000 0.85076  0.16730  0.66122  Biso   1.000  H
  H9       1.0000 0.03165  0.28040  0.78283  Biso   1.000  H
  H10      1.0000 0.05271  0.39051  0.68503  Biso   1.000  H
  H11      1.0000 0.62079  0.41823  0.99233  Biso   1.000  H
  H12      1.0000 0.53549  0.41889  0.13447  Biso   1.000  H
  H13      1.0000 0.51885  0.17453  0.21803  Biso   1.000  H
  H14      1.0000 0.58402  0.92791  0.16187  Biso   1.000  H
  H15      1.0000 0.67065  0.92820  0.02100  Biso   1.000  H
  H16      1.0000 0.95283  0.96714  0.90922  Biso   1.000  H
  H17      1.0000 0.85033  0.89276  0.96997  Biso   1.000  H
  H18      1.0000 0.79311  0.91898  0.83459  Biso   1.000  H
  H19      1.0000 0.89814  0.73266  0.61607  Biso   1.000  H
  H20      1.0000 0.75921  0.65688  0.52378  Biso   1.000  H
  H21      1.0000 0.90398  0.55789  0.55201  Biso   1.000  H
  C18      1.0000 0.06799  0.00286  0.24564  Biso   1.000  C
  C19      1.0000 0.11217  0.97029  0.15429  Biso   1.000  C
  C20      1.0000 0.20372  0.83239  0.18142  Biso   1.000  C
  C21      1.0000 0.30337  0.84645  0.28878  Biso   1.000  C
  C22      1.0000 0.24214  0.89305  0.36622  Biso   1.000  C
  C23      1.0000 0.13235  0.78345  0.36090  Biso   1.000  C
  C24      1.0000 0.01660  0.85724  0.28093  Biso   1.000  C
  C25      1.0000 0.29370  0.67565  0.08433  Biso   1.000  C
  C26      1.0000 0.34883  0.67367  0.00226  Biso   1.000  C
  C27      1.0000 0.38768  0.81160  0.97011  Biso   1.000  C
  C28      1.0000 0.43545  0.81186  0.89136  Biso   1.000  C
  C29      1.0000 0.44466  0.67356  0.84375  Biso   1.000  C
  C30      1.0000 0.40769  0.53508  0.87554  Biso   1.000  C
  C31      1.0000 0.36012  0.53490  0.95451  Biso   1.000  C
  C32      1.0000 0.16857  0.12060  0.13340  Biso   1.000  C
  C33      1.0000 0.12435  0.38739  0.09874  Biso   1.000  C
  C34      1.0000 0.15339  0.12659  0.41461  Biso   1.000  C
  N2       1.0000 0.18214  0.04617  0.33364  Biso   1.000  N
  O5       1.0000 0.26307  0.81975  0.10574  Biso   1.000  O
  O6       1.0000 0.27471  0.56009  0.12812  Biso   1.000  O
  O7       1.0000 0.27730  0.14271  0.13914  Biso   1.000  O
  O8       1.0000 0.08227  0.23661  0.11101  Biso   1.000  O
  H22      1.0000 0.00060  0.09869  0.22592  Biso   1.000  H
  H23      1.0000 0.03003  0.94146  0.08590  Biso   1.000  H
  H24      1.0000 0.14899  0.72509  0.17651  Biso   1.000  H
  H25      1.0000 0.35437  0.73732  0.31048  Biso   1.000  H
  H26      1.0000 0.37172  0.93478  0.28841  Biso   1.000  H
  H27      1.0000 0.31358  0.90070  0.44349  Biso   1.000  H
  H28      1.0000 0.12119  0.77432  0.43515  Biso   1.000  H
  H29      1.0000 0.14924  0.66730  0.33878  Biso   1.000  H
  H30      1.0000 0.96835  0.78040  0.21717  Biso   1.000  H
  H31      1.0000 0.94729  0.89051  0.31497  Biso   1.000  H
  H32      1.0000 0.37921  0.91823  0.00767  Biso   1.000  H
  H33      1.0000 0.46451  0.91889  0.86553  Biso   1.000  H
  H34      1.0000 0.48115  0.67453  0.78197  Biso   1.000  H
  H35      1.0000 0.41598  0.42791  0.83813  Biso   1.000  H
  H36      1.0000 0.32935  0.42820  0.97900  Biso   1.000  H
  H37      1.0000 0.04717  0.46714  0.09078  Biso   1.000  H
  H38      1.0000 0.14967  0.39276  0.03003  Biso   1.000  H
  H39      1.0000 0.20689  0.41898  0.16541  Biso   1.000  H
  H40      1.0000 0.10186  0.23266  0.38393  Biso   1.000  H
  H41      1.0000 0.24079  0.15688  0.47622  Biso   1.000  H
  H42      1.0000 0.09602  0.05789  0.44799  Biso   1.000  H
