data_image0
_cell_length_a       11.3991
_cell_length_b       8.67791
_cell_length_c       14.0052
_cell_angle_alpha    90
_cell_angle_beta     110.844
_cell_angle_gamma    90

_symmetry_space_group_name_H-M    "P 1"
_symmetry_int_tables_number       1

loop_
  _symmetry_equiv_pos_as_xyz
  'x, y, z'

loop_
  _atom_site_label
  _atom_site_occupancy
  _atom_site_fract_x
  _atom_site_fract_y
  _atom_site_fract_z
  _atom_site_thermal_displace_type
  _atom_site_B_iso_or_equiv
  _atom_site_type_symbol
  C1       1.0000 0.91574  0.50027  0.69481  Biso   1.000  C
  C2       1.0000 0.87157  0.46770  0.78616  Biso   1.000  C
  C3       1.0000 0.78002  0.32980  0.75903  Biso   1.000  C
  C4       1.0000 0.68036  0.34386  0.65167  Biso   1.000  C
  C5       1.0000 0.74160  0.39047  0.57423  Biso   1.000  C
  C6       1.0000 0.85139  0.28086  0.57956  Biso   1.000  C
  C7       1.0000 0.96714  0.35466  0.65952  Biso   1.000  C
  C8       1.0000 0.69003  0.17306  0.85613  Biso   1.000  C
  C9       1.0000 0.63491  0.17109  0.93820  Biso   1.000  C
  C10      1.0000 0.59606  0.30901  0.97034  Biso   1.000  C
  C11      1.0000 0.54829  0.30927  0.04909  Biso   1.000  C
  C12      1.0000 0.53908  0.17097  0.09670  Biso   1.000  C
  C13      1.0000 0.57605  0.03249  0.06491  Biso   1.000  C
  C14      1.0000 0.62362  0.03231  0.98594  Biso   1.000  C
  C15      1.0000 0.81517  0.61801  0.80705  Biso   1.000  C
  C16      1.0000 0.85939  0.88480  0.84171  Biso   1.000  C
  C17      1.0000 0.83035  0.62401  0.52585  Biso   1.000  C
  N1       1.0000 0.80159  0.54359  0.60681  Biso   1.000  N
  O1       1.0000 0.72066  0.31717  0.83471  Biso   1.000  O
  O2       1.0000 0.70902  0.05750  0.81233  Biso   1.000  O
  O3       1.0000 0.70644  0.64012  0.80131  Biso   1.000  O
  O4       1.0000 0.90147  0.73402  0.82944  Biso   1.000  O
  H1       1.0000 0.98314  0.59610  0.71453  Biso   1.000  H
  H2       1.0000 0.95370  0.43887  0.85455  Biso   1.000  H
  H3       1.0000 0.83475  0.22251  0.76395  Biso   1.000  H
  H4       1.0000 0.62936  0.23474  0.62997  Biso   1.000  H
  H5       1.0000 0.61202  0.43220  0.65205  Biso   1.000  H
  H6       1.0000 0.67015  0.39811  0.49697  Biso   1.000  H
  H7       1.0000 0.86255  0.27173  0.50530  Biso   1.000  H
  H8       1.0000 0.83450  0.16472  0.60168  Biso   1.000  H
  H9       1.0000 0.01539  0.27781  0.72329  Biso   1.000  H
  H10      1.0000 0.03644  0.38792  0.62549  Biso   1.000  H
  H11      1.0000 0.60453  0.41565  0.93279  Biso   1.000  H
  H12      1.0000 0.51923  0.41630  0.07492  Biso   1.000  H
  H13      1.0000 0.50258  0.17195  0.15848  Biso   1.000  H
  H14      1.0000 0.56775  0.92532  0.10233  Biso   1.000  H
  H15      1.0000 0.65438  0.92562  0.96145  Biso   1.000  H
  H16      1.0000 0.93657  0.96456  0.84967  Biso   1.000  H
  H17      1.0000 0.83407  0.89017  0.91042  Biso   1.000  H
  H18      1.0000 0.77685  0.91639  0.77504  Biso   1.000  H
  H19      1.0000 0.88187  0.73007  0.55652  Biso   1.000  H
  H20      1.0000 0.74295  0.65429  0.46423  Biso   1.000  H
  H21      1.0000 0.88771  0.55530  0.49247  Biso   1.000  H
  C18      1.0000 0.08426  0.00027  0.30519  Biso   1.000  C
  C19      1.0000 0.12843  0.96770  0.21384  Biso   1.000  C
  C20      1.0000 0.21998  0.82980  0.24097  Biso   1.000  C
  C21      1.0000 0.31964  0.84386  0.34833  Biso   1.000  C
  C22      1.0000 0.25840  0.89047  0.42577  Biso   1.000  C
  C23      1.0000 0.14861  0.78086  0.42044  Biso   1.000  C
  C24      1.0000 0.03286  0.85466  0.34048  Biso   1.000  C
  C25      1.0000 0.30997  0.67306  0.14387  Biso   1.000  C
  C26      1.0000 0.36509  0.67109  0.06180  Biso   1.000  C
  C27      1.0000 0.40394  0.80901  0.02966  Biso   1.000  C
  C28      1.0000 0.45171  0.80927  0.95091  Biso   1.000  C
  C29      1.0000 0.46092  0.67097  0.90330  Biso   1.000  C
  C30      1.0000 0.42395  0.53249  0.93509  Biso   1.000  C
  C31      1.0000 0.37638  0.53231  0.01406  Biso   1.000  C
  C32      1.0000 0.18483  0.11801  0.19295  Biso   1.000  C
  C33      1.0000 0.14061  0.38480  0.15829  Biso   1.000  C
  C34      1.0000 0.16965  0.12401  0.47415  Biso   1.000  C
  N2       1.0000 0.19841  0.04359  0.39319  Biso   1.000  N
  O5       1.0000 0.27934  0.81717  0.16529  Biso   1.000  O
  O6       1.0000 0.29098  0.55750  0.18767  Biso   1.000  O
  O7       1.0000 0.29356  0.14012  0.19869  Biso   1.000  O
  O8       1.0000 0.09853  0.23402  0.17056  Biso   1.000  O
  H22      1.0000 0.01686  0.09610  0.28547  Biso   1.000  H
  H23      1.0000 0.04630  0.93887  0.14545  Biso   1.000  H
  H24      1.0000 0.16525  0.72251  0.23605  Biso   1.000  H
  H25      1.0000 0.37064  0.73474  0.37003  Biso   1.000  H
  H26      1.0000 0.38798  0.93220  0.34795  Biso   1.000  H
  H27      1.0000 0.32985  0.89811  0.50303  Biso   1.000  H
  H28      1.0000 0.13745  0.77173  0.49470  Biso   1.000  H
  H29      1.0000 0.16550  0.66472  0.39832  Biso   1.000  H
  H30      1.0000 0.98461  0.77781  0.27671  Biso   1.000  H
  H31      1.0000 0.96356  0.88792  0.37451  Biso   1.000  H
  H32      1.0000 0.39547  0.91565  0.06721  Biso   1.000  H
  H33      1.0000 0.48077  0.91630  0.92508  Biso   1.000  H
  H34      1.0000 0.49742  0.67195  0.84152  Biso   1.000  H
  H35      1.0000 0.43225  0.42532  0.89767  Biso   1.000  H
  H36      1.0000 0.34562  0.42562  0.03855  Biso   1.000  H
  H37      1.0000 0.06343  0.46456  0.15033  Biso   1.000  H
  H38      1.0000 0.16593  0.39017  0.08958  Biso   1.000  H
  H39      1.0000 0.22315  0.41639  0.22496  Biso   1.000  H
  H40      1.0000 0.11813  0.23007  0.44348  Biso   1.000  H
  H41      1.0000 0.25705  0.15429  0.53577  Biso   1.000  H
  H42      1.0000 0.11229  0.05530  0.50753  Biso   1.000  H
