data_image0
_cell_length_a       12.5583
_cell_length_b       8.16564
_cell_length_c       10.7255
_cell_angle_alpha    90
_cell_angle_beta     91.474
_cell_angle_gamma    90

_symmetry_space_group_name_H-M    "P 1"
_symmetry_int_tables_number       1

loop_
  _symmetry_equiv_pos_as_xyz
  'x, y, z'

loop_
  _atom_site_label
  _atom_site_occupancy
  _atom_site_fract_x
  _atom_site_fract_y
  _atom_site_fract_z
  _atom_site_thermal_displace_type
  _atom_site_B_iso_or_equiv
  _atom_site_type_symbol
  C1       1.0000 0.91550  0.53862  0.21174  Biso   1.000  C
  C2       1.0000 0.80825  0.44941  0.23568  Biso   1.000  C
  C3       1.0000 0.83212  0.27696  0.28836  Biso   1.000  C
  C4       1.0000 0.91704  0.18684  0.21445  Biso   1.000  C
  C5       1.0000 0.01205  0.30054  0.19073  Biso   1.000  C
  C6       1.0000 0.05591  0.37811  0.31381  Biso   1.000  C
  C7       1.0000 0.99181  0.53681  0.32717  Biso   1.000  C
  C8       1.0000 0.72444  0.07014  0.38130  Biso   1.000  C
  C9       1.0000 0.61925  0.98475  0.37737  Biso   1.000  C
  C10      1.0000 0.55127  0.99863  0.27183  Biso   1.000  C
  C11      1.0000 0.45151  0.92394  0.26867  Biso   1.000  C
  C12      1.0000 0.41865  0.83451  0.37160  Biso   1.000  C
  C13      1.0000 0.48577  0.81800  0.47683  Biso   1.000  C
  C14      1.0000 0.58569  0.89254  0.47980  Biso   1.000  C
  C15      1.0000 0.74537  0.45062  0.11184  Biso   1.000  C
  C16      1.0000 0.67916  0.62762  0.95118  Biso   1.000  C
  C17      1.0000 0.05445  0.53301  0.05401  Biso   1.000  C
  N1       1.0000 0.97052  0.44117  0.11553  Biso   1.000  N
  O1       1.0000 0.73429  0.18261  0.28876  Biso   1.000  O
  O2       1.0000 0.79569  0.04580  0.46053  Biso   1.000  O
  O3       1.0000 0.71593  0.33141  0.05021  Biso   1.000  O
  O4       1.0000 0.72850  0.60700  0.07127  Biso   1.000  O
  H1       1.0000 0.89908  0.66284  0.17689  Biso   1.000  H
  H2       1.0000 0.76278  0.51958  0.30435  Biso   1.000  H
  H3       1.0000 0.85976  0.28926  0.38697  Biso   1.000  H
  H4       1.0000 0.94254  0.07632  0.26495  Biso   1.000  H
  H5       1.0000 0.88259  0.14762  0.12457  Biso   1.000  H
  H6       1.0000 0.07363  0.23479  0.13938  Biso   1.000  H
  H7       1.0000 0.14132  0.40324  0.30898  Biso   1.000  H
  H8       1.0000 0.04501  0.29582  0.39265  Biso   1.000  H
  H9       1.0000 0.94883  0.54345  0.41438  Biso   1.000  H
  H10      1.0000 0.04413  0.64425  0.32535  Biso   1.000  H
  H11      1.0000 0.57793  0.06943  0.19286  Biso   1.000  H
  H12      1.0000 0.39813  0.93584  0.18741  Biso   1.000  H
  H13      1.0000 0.34056  0.77748  0.36899  Biso   1.000  H
  H14      1.0000 0.45939  0.74718  0.55622  Biso   1.000  H
  H15      1.0000 0.63808  0.88258  0.56182  Biso   1.000  H
  H16      1.0000 0.68092  0.75830  0.92909  Biso   1.000  H
  H17      1.0000 0.59616  0.58474  0.95160  Biso   1.000  H
  H18      1.0000 0.72220  0.55794  0.88078  Biso   1.000  H
  H19      1.0000 0.01983  0.64071  0.00778  Biso   1.000  H
  H20      1.0000 0.09077  0.45573  0.98359  Biso   1.000  H
  H21      1.0000 0.11845  0.57579  0.11860  Biso   1.000  H
  C18      1.0000 0.08450  0.03862  0.78826  Biso   1.000  C
  C19      1.0000 0.19175  0.94941  0.76432  Biso   1.000  C
  C20      1.0000 0.16788  0.77696  0.71164  Biso   1.000  C
  C21      1.0000 0.08296  0.68684  0.78555  Biso   1.000  C
  C22      1.0000 0.98795  0.80054  0.80927  Biso   1.000  C
  C23      1.0000 0.94409  0.87811  0.68619  Biso   1.000  C
  C24      1.0000 0.00819  0.03681  0.67283  Biso   1.000  C
  C25      1.0000 0.27556  0.57014  0.61870  Biso   1.000  C
  C26      1.0000 0.38075  0.48475  0.62263  Biso   1.000  C
  C27      1.0000 0.44873  0.49863  0.72817  Biso   1.000  C
  C28      1.0000 0.54849  0.42394  0.73133  Biso   1.000  C
  C29      1.0000 0.58135  0.33451  0.62840  Biso   1.000  C
  C30      1.0000 0.51423  0.31800  0.52317  Biso   1.000  C
  C31      1.0000 0.41431  0.39254  0.52020  Biso   1.000  C
  C32      1.0000 0.25463  0.95062  0.88816  Biso   1.000  C
  C33      1.0000 0.32084  0.12762  0.04882  Biso   1.000  C
  C34      1.0000 0.94555  0.03301  0.94599  Biso   1.000  C
  N2       1.0000 0.02948  0.94117  0.88447  Biso   1.000  N
  O5       1.0000 0.26571  0.68261  0.71124  Biso   1.000  O
  O6       1.0000 0.20431  0.54580  0.53947  Biso   1.000  O
  O7       1.0000 0.28407  0.83141  0.94979  Biso   1.000  O
  O8       1.0000 0.27150  0.10700  0.92873  Biso   1.000  O
  H22      1.0000 0.10092  0.16284  0.82311  Biso   1.000  H
  H23      1.0000 0.23722  0.01958  0.69565  Biso   1.000  H
  H24      1.0000 0.14024  0.78926  0.61303  Biso   1.000  H
  H25      1.0000 0.05746  0.57632  0.73505  Biso   1.000  H
  H26      1.0000 0.11741  0.64762  0.87543  Biso   1.000  H
  H27      1.0000 0.92637  0.73479  0.86062  Biso   1.000  H
  H28      1.0000 0.85868  0.90324  0.69102  Biso   1.000  H
  H29      1.0000 0.95499  0.79582  0.60735  Biso   1.000  H
  H30      1.0000 0.05117  0.04345  0.58562  Biso   1.000  H
  H31      1.0000 0.95587  0.14425  0.67465  Biso   1.000  H
  H32      1.0000 0.42207  0.56943  0.80714  Biso   1.000  H
  H33      1.0000 0.60187  0.43584  0.81259  Biso   1.000  H
  H34      1.0000 0.65944  0.27748  0.63101  Biso   1.000  H
  H35      1.0000 0.54061  0.24718  0.44378  Biso   1.000  H
  H36      1.0000 0.36192  0.38258  0.43818  Biso   1.000  H
  H37      1.0000 0.31908  0.25830  0.07091  Biso   1.000  H
  H38      1.0000 0.40384  0.08474  0.04840  Biso   1.000  H
  H39      1.0000 0.27780  0.05794  0.11922  Biso   1.000  H
  H40      1.0000 0.98017  0.14071  0.99222  Biso   1.000  H
  H41      1.0000 0.90923  0.95573  0.01641  Biso   1.000  H
  H42      1.0000 0.88155  0.07579  0.88140  Biso   1.000  H
