data_image0
_cell_length_a       4.07213
_cell_length_b       55.3614
_cell_length_c       30.3337
_cell_angle_alpha    90
_cell_angle_beta     90
_cell_angle_gamma    90

_symmetry_space_group_name_H-M    "P 1"
_symmetry_int_tables_number       1

loop_
  _symmetry_equiv_pos_as_xyz
  'x, y, z'

loop_
  _atom_site_label
  _atom_site_occupancy
  _atom_site_fract_x
  _atom_site_fract_y
  _atom_site_fract_z
  _atom_site_thermal_displace_type
  _atom_site_B_iso_or_equiv
  _atom_site_type_symbol
  S1       1.0000 0.29280  0.37763  0.71045  Biso   1.000  S
  S2       1.0000 0.24544  0.48791  0.55162  Biso   1.000  S
  O1       1.0000 0.44963  0.57774  0.57240  Biso   1.000  O
  O2       1.0000 0.01506  0.54938  0.56364  Biso   1.000  O
  O3       1.0000 0.78311  0.47332  0.50875  Biso   1.000  O
  O4       1.0000 0.90734  0.44092  0.55013  Biso   1.000  O
  O5       1.0000 0.94493  0.42127  0.61613  Biso   1.000  O
  N1       1.0000 0.64512  0.48979  0.58065  Biso   1.000  N
  N2       1.0000 0.41767  0.54273  0.61287  Biso   1.000  N
  N3       1.0000 0.77047  0.57459  0.63486  Biso   1.000  N
  N4       1.0000 0.33320  0.52506  0.60723  Biso   1.000  N
  N5       1.0000 0.30258  0.45272  0.59963  Biso   1.000  N
  N6       1.0000 0.78026  0.39634  0.74846  Biso   1.000  N
  C1       1.0000 0.22154  0.50075  0.59531  Biso   1.000  C
  C2       1.0000 0.84084  0.49997  0.59521  Biso   1.000  C
  C3       1.0000 0.69259  0.47592  0.58231  Biso   1.000  C
  C4       1.0000 0.51846  0.46227  0.61344  Biso   1.000  C
  C5       1.0000 0.39118  0.43963  0.60259  Biso   1.000  C
  C6       1.0000 0.43360  0.43033  0.56026  Biso   1.000  C
  C7       1.0000 0.61018  0.44357  0.52907  Biso   1.000  C
  C8       1.0000 0.73841  0.46614  0.53999  Biso   1.000  C
  C9       1.0000 0.81090  0.50935  0.59908  Biso   1.000  C
  C10      1.0000 0.13517  0.51142  0.58718  Biso   1.000  C
  C11      1.0000 0.83614  0.47676  0.55505  Biso   1.000  C
  C12      1.0000 0.73270  0.45322  0.53410  Biso   1.000  C
  C13      1.0000 0.97160  0.44747  0.49630  Biso   1.000  C
  C14      1.0000 0.63788  0.52483  0.63263  Biso   1.000  C
  C15      1.0000 0.10458  0.53473  0.59517  Biso   1.000  C
  C16      1.0000 0.53987  0.56574  0.60567  Biso   1.000  C
  C17      1.0000 0.19551  0.52040  0.67448  Biso   1.000  C
  C18      1.0000 0.08429  0.54628  0.68315  Biso   1.000  C
  C19      1.0000 0.74162  0.54713  0.70346  Biso   1.000  C
  C20      1.0000 0.08180  0.56161  0.64025  Biso   1.000  C
  C21      1.0000 0.14278  0.54503  0.60015  Biso   1.000  C
  C22      1.0000 0.36128  0.49374  0.54961  Biso   1.000  C
  C23      1.0000 0.67299  0.47817  0.55239  Biso   1.000  C
  C24      1.0000 0.62139  0.45361  0.57717  Biso   1.000  C
  C25      1.0000 0.65232  0.43202  0.54473  Biso   1.000  C
  C26      1.0000 0.38488  0.43059  0.51038  Biso   1.000  C
  C27      1.0000 0.09902  0.41705  0.51762  Biso   1.000  C
  C28      1.0000 0.84172  0.41764  0.48729  Biso   1.000  C
  C29      1.0000 0.86860  0.43146  0.44898  Biso   1.000  C
  C30      1.0000 0.15616  0.44445  0.44088  Biso   1.000  C
  C31      1.0000 0.04193  0.43868  0.58684  Biso   1.000  C
  C32      1.0000 0.21336  0.41212  0.64211  Biso   1.000  C
  C33      1.0000 0.09097  0.40180  0.68446  Biso   1.000  C
  C34      1.0000 0.82871  0.40914  0.70968  Biso   1.000  C
  C35      1.0000 0.00252  0.37935  0.75340  Biso   1.000  C
  C36      1.0000 0.37770  0.45394  0.51805  Biso   1.000  C
  C37      1.0000 0.41239  0.44410  0.47137  Biso   1.000  C
  H1       1.0000 0.61877  0.40735  0.49371  Biso   1.000  H
  H2       1.0000 0.66589  0.43209  0.42562  Biso   1.000  H
  H3       1.0000 0.17705  0.45531  0.41117  Biso   1.000  H
  H4       1.0000 0.38915  0.42700  0.64822  Biso   1.000  H
  H5       1.0000 0.34765  0.39840  0.62271  Biso   1.000  H
  H6       1.0000 0.66008  0.42352  0.70045  Biso   1.000  H
  H7       1.0000 0.00714  0.36699  0.78132  Biso   1.000  H
  H8       1.0000 0.34416  0.46813  0.49352  Biso   1.000  H
  H9       1.0000 0.30685  0.43681  0.50308  Biso   1.000  H
  H10      1.0000 0.21068  0.45768  0.54529  Biso   1.000  H
  H11      1.0000 0.63429  0.45452  0.46524  Biso   1.000  H
  H12      1.0000 0.03211  0.51140  0.65120  Biso   1.000  H
  H13      1.0000 0.44263  0.52006  0.66085  Biso   1.000  H
  H14      1.0000 0.19646  0.50995  0.70487  Biso   1.000  H
  H15      1.0000 0.26018  0.55470  0.70604  Biso   1.000  H
  H16      1.0000 0.72936  0.53648  0.73347  Biso   1.000  H
  H17      1.0000 0.67243  0.56560  0.71150  Biso   1.000  H
  H18      1.0000 0.55929  0.54006  0.68049  Biso   1.000  H
  H19      1.0000 0.27900  0.57526  0.64219  Biso   1.000  H
  H20      1.0000 0.41992  0.51033  0.53163  Biso   1.000  H
  H21      1.0000 0.17078  0.48444  0.53061  Biso   1.000  H
  H22      1.0000 0.86873  0.48835  0.57065  Biso   1.000  H
  H23      1.0000 0.81392  0.45229  0.60257  Biso   1.000  H
  H24      1.0000 0.64530  0.41535  0.56421  Biso   1.000  H
  H25      1.0000 0.89353  0.43268  0.52886  Biso   1.000  H
  H26      1.0000 0.07498  0.40619  0.54732  Biso   1.000  H
  H27      1.0000 0.31998  0.48840  0.62065  Biso   1.000  H
  H28      1.0000 0.75017  0.51394  0.57282  Biso   1.000  H
  H29      1.0000 0.75716  0.50500  0.62838  Biso   1.000  H
  H30      1.0000 0.48677  0.46931  0.64672  Biso   1.000  H
  H31      1.0000 0.33546  0.41261  0.55206  Biso   1.000  H
  H32      1.0000 0.65389  0.43617  0.49626  Biso   1.000  H
  H33      1.0000 0.87696  0.47609  0.51538  Biso   1.000  H
  H34      1.0000 0.30684  0.52526  0.59741  Biso   1.000  H
  H35      1.0000 0.75687  0.43886  0.55904  Biso   1.000  H
  H36      1.0000 0.22349  0.44646  0.50829  Biso   1.000  H
  H37      1.0000 0.91020  0.43031  0.48079  Biso   1.000  H
  H38      1.0000 0.96204  0.46150  0.47113  Biso   1.000  H
  H39      1.0000 0.48313  0.51329  0.65367  Biso   1.000  H
  H40      1.0000 0.81879  0.53367  0.65429  Biso   1.000  H
  H41      1.0000 0.04062  0.51731  0.60969  Biso   1.000  H
  H42      1.0000 0.90768  0.54754  0.60332  Biso   1.000  H
  H43      1.0000 0.10850  0.53263  0.55903  Biso   1.000  H
  H44      1.0000 0.83546  0.48910  0.49478  Biso   1.000  H
  H45      1.0000 0.78093  0.59276  0.64201  Biso   1.000  H
  H46      1.0000 0.58122  0.52737  0.61162  Biso   1.000  H
  H47      1.0000 0.26452  0.42894  0.62742  Biso   1.000  H
  H48      1.0000 0.29822  0.45810  0.63209  Biso   1.000  H
  S3       1.0000 0.20720  0.62237  0.21045  Biso   1.000  S
  S4       1.0000 0.25456  0.51209  0.05162  Biso   1.000  S
  O6       1.0000 0.05037  0.42226  0.07240  Biso   1.000  O
  O7       1.0000 0.48494  0.45062  0.06364  Biso   1.000  O
  O8       1.0000 0.71689  0.52668  0.00875  Biso   1.000  O
  O9       1.0000 0.59266  0.55908  0.05013  Biso   1.000  O
  O10      1.0000 0.55507  0.57873  0.11613  Biso   1.000  O
  N7       1.0000 0.85488  0.51021  0.08065  Biso   1.000  N
  N8       1.0000 0.08233  0.45727  0.11287  Biso   1.000  N
  N9       1.0000 0.72953  0.42541  0.13486  Biso   1.000  N
  N10      1.0000 0.16680  0.47494  0.10723  Biso   1.000  N
  N11      1.0000 0.19742  0.54728  0.09963  Biso   1.000  N
  N12      1.0000 0.71974  0.60366  0.24846  Biso   1.000  N
  C38      1.0000 0.27846  0.49925  0.09531  Biso   1.000  C
  C39      1.0000 0.65916  0.50003  0.09521  Biso   1.000  C
  C40      1.0000 0.80741  0.52408  0.08231  Biso   1.000  C
  C41      1.0000 0.98154  0.53773  0.11344  Biso   1.000  C
  C42      1.0000 0.10882  0.56037  0.10259  Biso   1.000  C
  C43      1.0000 0.06640  0.56967  0.06026  Biso   1.000  C
  C44      1.0000 0.88982  0.55643  0.02907  Biso   1.000  C
  C45      1.0000 0.76159  0.53386  0.03999  Biso   1.000  C
  C46      1.0000 0.68910  0.49065  0.09908  Biso   1.000  C
  C47      1.0000 0.36483  0.48858  0.08718  Biso   1.000  C
  C48      1.0000 0.66386  0.52324  0.05505  Biso   1.000  C
  C49      1.0000 0.76730  0.54678  0.03410  Biso   1.000  C
  C50      1.0000 0.52840  0.55253  0.99630  Biso   1.000  C
  C51      1.0000 0.86212  0.47517  0.13263  Biso   1.000  C
  C52      1.0000 0.39542  0.46527  0.09517  Biso   1.000  C
  C53      1.0000 0.96013  0.43426  0.10567  Biso   1.000  C
  C54      1.0000 0.30449  0.47960  0.17448  Biso   1.000  C
  C55      1.0000 0.41571  0.45372  0.18315  Biso   1.000  C
  C56      1.0000 0.75838  0.45287  0.20346  Biso   1.000  C
  C57      1.0000 0.41820  0.43839  0.14025  Biso   1.000  C
  C58      1.0000 0.35722  0.45497  0.10015  Biso   1.000  C
  C59      1.0000 0.13872  0.50626  0.04961  Biso   1.000  C
  C60      1.0000 0.82701  0.52183  0.05239  Biso   1.000  C
  C61      1.0000 0.87861  0.54639  0.07717  Biso   1.000  C
  C62      1.0000 0.84768  0.56798  0.04473  Biso   1.000  C
  C63      1.0000 0.11512  0.56941  0.01038  Biso   1.000  C
  C64      1.0000 0.40098  0.58295  0.01762  Biso   1.000  C
  C65      1.0000 0.65828  0.58236  0.98729  Biso   1.000  C
  C66      1.0000 0.63140  0.56854  0.94898  Biso   1.000  C
  C67      1.0000 0.34384  0.55555  0.94088  Biso   1.000  C
  C68      1.0000 0.45807  0.56132  0.08684  Biso   1.000  C
  C69      1.0000 0.28664  0.58788  0.14211  Biso   1.000  C
  C70      1.0000 0.40903  0.59820  0.18446  Biso   1.000  C
  C71      1.0000 0.67129  0.59086  0.20968  Biso   1.000  C
  C72      1.0000 0.49748  0.62065  0.25340  Biso   1.000  C
  C73      1.0000 0.12230  0.54606  0.01805  Biso   1.000  C
  C74      1.0000 0.08761  0.55590  0.97137  Biso   1.000  C
  H49      1.0000 0.88123  0.59265  0.99371  Biso   1.000  H
  H50      1.0000 0.83411  0.56791  0.92562  Biso   1.000  H
  H51      1.0000 0.32295  0.54469  0.91117  Biso   1.000  H
  H52      1.0000 0.11085  0.57300  0.14822  Biso   1.000  H
  H53      1.0000 0.15235  0.60160  0.12271  Biso   1.000  H
  H54      1.0000 0.83992  0.57648  0.20045  Biso   1.000  H
  H55      1.0000 0.49286  0.63301  0.28132  Biso   1.000  H
  H56      1.0000 0.15584  0.53187  0.99352  Biso   1.000  H
  H57      1.0000 0.19315  0.56319  0.00308  Biso   1.000  H
  H58      1.0000 0.28932  0.54232  0.04529  Biso   1.000  H
  H59      1.0000 0.86571  0.54548  0.96524  Biso   1.000  H
  H60      1.0000 0.46789  0.48860  0.15120  Biso   1.000  H
  H61      1.0000 0.05737  0.47994  0.16085  Biso   1.000  H
  H62      1.0000 0.30354  0.49005  0.20487  Biso   1.000  H
  H63      1.0000 0.23982  0.44530  0.20604  Biso   1.000  H
  H64      1.0000 0.77064  0.46352  0.23347  Biso   1.000  H
  H65      1.0000 0.82757  0.43440  0.21150  Biso   1.000  H
  H66      1.0000 0.94071  0.45994  0.18049  Biso   1.000  H
  H67      1.0000 0.22100  0.42474  0.14219  Biso   1.000  H
  H68      1.0000 0.08008  0.48967  0.03163  Biso   1.000  H
  H69      1.0000 0.32922  0.51556  0.03061  Biso   1.000  H
  H70      1.0000 0.63127  0.51165  0.07065  Biso   1.000  H
  H71      1.0000 0.68608  0.54771  0.10257  Biso   1.000  H
  H72      1.0000 0.85470  0.58465  0.06421  Biso   1.000  H
  H73      1.0000 0.60647  0.56732  0.02886  Biso   1.000  H
  H74      1.0000 0.42502  0.59381  0.04732  Biso   1.000  H
  H75      1.0000 0.18002  0.51160  0.12065  Biso   1.000  H
  H76      1.0000 0.74983  0.48606  0.07282  Biso   1.000  H
  H77      1.0000 0.74284  0.49500  0.12838  Biso   1.000  H
  H78      1.0000 0.01323  0.53069  0.14672  Biso   1.000  H
  H79      1.0000 0.16454  0.58739  0.05206  Biso   1.000  H
  H80      1.0000 0.84611  0.56383  0.99626  Biso   1.000  H
  H81      1.0000 0.62304  0.52391  0.01538  Biso   1.000  H
  H82      1.0000 0.19316  0.47474  0.09741  Biso   1.000  H
  H83      1.0000 0.74313  0.56114  0.05904  Biso   1.000  H
  H84      1.0000 0.27651  0.55354  0.00829  Biso   1.000  H
  H85      1.0000 0.58980  0.56969  0.98079  Biso   1.000  H
  H86      1.0000 0.53796  0.53850  0.97113  Biso   1.000  H
  H87      1.0000 0.01687  0.48671  0.15367  Biso   1.000  H
  H88      1.0000 0.68121  0.46633  0.15429  Biso   1.000  H
  H89      1.0000 0.45938  0.48269  0.10969  Biso   1.000  H
  H90      1.0000 0.59232  0.45246  0.10332  Biso   1.000  H
  H91      1.0000 0.39150  0.46737  0.05903  Biso   1.000  H
  H92      1.0000 0.66454  0.51090  0.99478  Biso   1.000  H
  H93      1.0000 0.71907  0.40724  0.14201  Biso   1.000  H
  H94      1.0000 0.91878  0.47263  0.11162  Biso   1.000  H
  H95      1.0000 0.23548  0.57106  0.12742  Biso   1.000  H
  H96      1.0000 0.20178  0.54190  0.13209  Biso   1.000  H
  S5       1.0000 0.70720  0.87763  0.78955  Biso   1.000  S
  S6       1.0000 0.75456  0.98791  0.94838  Biso   1.000  S
  O11      1.0000 0.55037  0.07774  0.92760  Biso   1.000  O
  O12      1.0000 0.98494  0.04938  0.93636  Biso   1.000  O
  O13      1.0000 0.21689  0.97332  0.99125  Biso   1.000  O
  O14      1.0000 0.09266  0.94092  0.94987  Biso   1.000  O
  O15      1.0000 0.05507  0.92127  0.88387  Biso   1.000  O
  N13      1.0000 0.35488  0.98979  0.91935  Biso   1.000  N
  N14      1.0000 0.58233  0.04273  0.88713  Biso   1.000  N
  N15      1.0000 0.22953  0.07459  0.86514  Biso   1.000  N
  N16      1.0000 0.66680  0.02506  0.89277  Biso   1.000  N
  N17      1.0000 0.69742  0.95272  0.90037  Biso   1.000  N
  N18      1.0000 0.21974  0.89634  0.75154  Biso   1.000  N
  C75      1.0000 0.77846  0.00075  0.90469  Biso   1.000  C
  C76      1.0000 0.15916  0.99997  0.90479  Biso   1.000  C
  C77      1.0000 0.30741  0.97592  0.91769  Biso   1.000  C
  C78      1.0000 0.48154  0.96227  0.88656  Biso   1.000  C
  C79      1.0000 0.60882  0.93963  0.89741  Biso   1.000  C
  C80      1.0000 0.56640  0.93033  0.93974  Biso   1.000  C
  C81      1.0000 0.38982  0.94357  0.97093  Biso   1.000  C
  C82      1.0000 0.26159  0.96614  0.96001  Biso   1.000  C
  C83      1.0000 0.18910  0.00935  0.90092  Biso   1.000  C
  C84      1.0000 0.86483  0.01142  0.91282  Biso   1.000  C
  C85      1.0000 0.16386  0.97676  0.94495  Biso   1.000  C
  C86      1.0000 0.26730  0.95322  0.96590  Biso   1.000  C
  C87      1.0000 0.02840  0.94747  0.00370  Biso   1.000  C
  C88      1.0000 0.36212  0.02483  0.86737  Biso   1.000  C
  C89      1.0000 0.89542  0.03473  0.90483  Biso   1.000  C
  C90      1.0000 0.46013  0.06574  0.89433  Biso   1.000  C
  C91      1.0000 0.80449  0.02040  0.82552  Biso   1.000  C
  C92      1.0000 0.91571  0.04628  0.81685  Biso   1.000  C
  C93      1.0000 0.25838  0.04713  0.79654  Biso   1.000  C
  C94      1.0000 0.91820  0.06161  0.85975  Biso   1.000  C
  C95      1.0000 0.85722  0.04503  0.89985  Biso   1.000  C
  C96      1.0000 0.63872  0.99374  0.95039  Biso   1.000  C
  C97      1.0000 0.32701  0.97817  0.94761  Biso   1.000  C
  C98      1.0000 0.37861  0.95361  0.92283  Biso   1.000  C
  C99      1.0000 0.34768  0.93202  0.95527  Biso   1.000  C
  C100     1.0000 0.61512  0.93059  0.98962  Biso   1.000  C
  C101     1.0000 0.90098  0.91705  0.98238  Biso   1.000  C
  C102     1.0000 0.15828  0.91764  0.01271  Biso   1.000  C
  C103     1.0000 0.13140  0.93146  0.05102  Biso   1.000  C
  C104     1.0000 0.84384  0.94445  0.05912  Biso   1.000  C
  C105     1.0000 0.95807  0.93868  0.91316  Biso   1.000  C
  C106     1.0000 0.78664  0.91212  0.85789  Biso   1.000  C
  C107     1.0000 0.90903  0.90180  0.81554  Biso   1.000  C
  C108     1.0000 0.17129  0.90914  0.79032  Biso   1.000  C
  C109     1.0000 0.99748  0.87935  0.74660  Biso   1.000  C
  C110     1.0000 0.62230  0.95394  0.98195  Biso   1.000  C
  C111     1.0000 0.58761  0.94410  0.02863  Biso   1.000  C
  H97      1.0000 0.38123  0.90735  0.00629  Biso   1.000  H
  H98      1.0000 0.33411  0.93209  0.07438  Biso   1.000  H
  H99      1.0000 0.82295  0.95531  0.08883  Biso   1.000  H
  H100     1.0000 0.61085  0.92700  0.85178  Biso   1.000  H
  H101     1.0000 0.65235  0.89840  0.87729  Biso   1.000  H
  H102     1.0000 0.33992  0.92352  0.79955  Biso   1.000  H
  H103     1.0000 0.99286  0.86699  0.71868  Biso   1.000  H
  H104     1.0000 0.65584  0.96813  0.00648  Biso   1.000  H
  H105     1.0000 0.69315  0.93681  0.99692  Biso   1.000  H
  H106     1.0000 0.78932  0.95768  0.95471  Biso   1.000  H
  H107     1.0000 0.36571  0.95452  0.03476  Biso   1.000  H
  H108     1.0000 0.96789  0.01140  0.84880  Biso   1.000  H
  H109     1.0000 0.55737  0.02006  0.83915  Biso   1.000  H
  H110     1.0000 0.80354  0.00995  0.79513  Biso   1.000  H
  H111     1.0000 0.73982  0.05470  0.79396  Biso   1.000  H
  H112     1.0000 0.27064  0.03648  0.76653  Biso   1.000  H
  H113     1.0000 0.32757  0.06560  0.78850  Biso   1.000  H
  H114     1.0000 0.44071  0.04006  0.81951  Biso   1.000  H
  H115     1.0000 0.72100  0.07526  0.85781  Biso   1.000  H
  H116     1.0000 0.58008  0.01033  0.96837  Biso   1.000  H
  H117     1.0000 0.82922  0.98444  0.96939  Biso   1.000  H
  H118     1.0000 0.13127  0.98835  0.92935  Biso   1.000  H
  H119     1.0000 0.18608  0.95229  0.89743  Biso   1.000  H
  H120     1.0000 0.35470  0.91535  0.93579  Biso   1.000  H
  H121     1.0000 0.10647  0.93268  0.97114  Biso   1.000  H
  H122     1.0000 0.92502  0.90619  0.95268  Biso   1.000  H
  H123     1.0000 0.68002  0.98840  0.87935  Biso   1.000  H
  H124     1.0000 0.24983  0.01394  0.92718  Biso   1.000  H
  H125     1.0000 0.24284  0.00500  0.87162  Biso   1.000  H
  H126     1.0000 0.51323  0.96931  0.85328  Biso   1.000  H
  H127     1.0000 0.66454  0.91261  0.94794  Biso   1.000  H
  H128     1.0000 0.34611  0.93617  0.00374  Biso   1.000  H
  H129     1.0000 0.12304  0.97609  0.98462  Biso   1.000  H
  H130     1.0000 0.69316  0.02526  0.90259  Biso   1.000  H
  H131     1.0000 0.24313  0.93886  0.94096  Biso   1.000  H
  H132     1.0000 0.77651  0.94646  0.99171  Biso   1.000  H
  H133     1.0000 0.08980  0.93031  0.01921  Biso   1.000  H
  H134     1.0000 0.03796  0.96150  0.02887  Biso   1.000  H
  H135     1.0000 0.51687  0.01329  0.84633  Biso   1.000  H
  H136     1.0000 0.18121  0.03367  0.84571  Biso   1.000  H
  H137     1.0000 0.95938  0.01731  0.89031  Biso   1.000  H
  H138     1.0000 0.09232  0.04754  0.89668  Biso   1.000  H
  H139     1.0000 0.89150  0.03263  0.94097  Biso   1.000  H
  H140     1.0000 0.16454  0.98910  0.00522  Biso   1.000  H
  H141     1.0000 0.21907  0.09276  0.85799  Biso   1.000  H
  H142     1.0000 0.41878  0.02737  0.88838  Biso   1.000  H
  H143     1.0000 0.73548  0.92894  0.87258  Biso   1.000  H
  H144     1.0000 0.70178  0.95810  0.86791  Biso   1.000  H
  S7       1.0000 0.79280  0.12237  0.28955  Biso   1.000  S
  S8       1.0000 0.74544  0.01209  0.44838  Biso   1.000  S
  O16      1.0000 0.94963  0.92226  0.42760  Biso   1.000  O
  O17      1.0000 0.51506  0.95062  0.43636  Biso   1.000  O
  O18      1.0000 0.28311  0.02668  0.49125  Biso   1.000  O
  O19      1.0000 0.40734  0.05908  0.44987  Biso   1.000  O
  O20      1.0000 0.44493  0.07873  0.38387  Biso   1.000  O
  N19      1.0000 0.14512  0.01021  0.41935  Biso   1.000  N
  N20      1.0000 0.91767  0.95727  0.38713  Biso   1.000  N
  N21      1.0000 0.27047  0.92541  0.36514  Biso   1.000  N
  N22      1.0000 0.83320  0.97494  0.39277  Biso   1.000  N
  N23      1.0000 0.80258  0.04728  0.40037  Biso   1.000  N
  N24      1.0000 0.28026  0.10366  0.25154  Biso   1.000  N
  C112     1.0000 0.72154  0.99925  0.40469  Biso   1.000  C
  C113     1.0000 0.34084  0.00003  0.40479  Biso   1.000  C
  C114     1.0000 0.19259  0.02408  0.41769  Biso   1.000  C
  C115     1.0000 0.01846  0.03773  0.38656  Biso   1.000  C
  C116     1.0000 0.89118  0.06037  0.39741  Biso   1.000  C
  C117     1.0000 0.93360  0.06967  0.43974  Biso   1.000  C
  C118     1.0000 0.11018  0.05643  0.47093  Biso   1.000  C
  C119     1.0000 0.23841  0.03386  0.46001  Biso   1.000  C
  C120     1.0000 0.31090  0.99065  0.40092  Biso   1.000  C
  C121     1.0000 0.63517  0.98858  0.41282  Biso   1.000  C
  C122     1.0000 0.33614  0.02324  0.44495  Biso   1.000  C
  C123     1.0000 0.23270  0.04678  0.46590  Biso   1.000  C
  C124     1.0000 0.47160  0.05253  0.50370  Biso   1.000  C
  C125     1.0000 0.13788  0.97517  0.36737  Biso   1.000  C
  C126     1.0000 0.60458  0.96527  0.40483  Biso   1.000  C
  C127     1.0000 0.03987  0.93426  0.39433  Biso   1.000  C
  C128     1.0000 0.69551  0.97960  0.32552  Biso   1.000  C
  C129     1.0000 0.58429  0.95372  0.31685  Biso   1.000  C
  C130     1.0000 0.24162  0.95287  0.29654  Biso   1.000  C
  C131     1.0000 0.58180  0.93839  0.35975  Biso   1.000  C
  C132     1.0000 0.64278  0.95497  0.39985  Biso   1.000  C
  C133     1.0000 0.86128  0.00626  0.45039  Biso   1.000  C
  C134     1.0000 0.17299  0.02183  0.44761  Biso   1.000  C
  C135     1.0000 0.12139  0.04639  0.42283  Biso   1.000  C
  C136     1.0000 0.15232  0.06798  0.45527  Biso   1.000  C
  C137     1.0000 0.88488  0.06941  0.48962  Biso   1.000  C
  C138     1.0000 0.59902  0.08295  0.48238  Biso   1.000  C
  C139     1.0000 0.34172  0.08236  0.51271  Biso   1.000  C
  C140     1.0000 0.36860  0.06854  0.55102  Biso   1.000  C
  C141     1.0000 0.65616  0.05555  0.55912  Biso   1.000  C
  C142     1.0000 0.54193  0.06132  0.41316  Biso   1.000  C
  C143     1.0000 0.71336  0.08788  0.35789  Biso   1.000  C
  C144     1.0000 0.59097  0.09820  0.31554  Biso   1.000  C
  C145     1.0000 0.32871  0.09086  0.29032  Biso   1.000  C
  C146     1.0000 0.50252  0.12065  0.24660  Biso   1.000  C
  C147     1.0000 0.87770  0.04606  0.48195  Biso   1.000  C
  C148     1.0000 0.91239  0.05590  0.52863  Biso   1.000  C
  H145     1.0000 0.11877  0.09265  0.50629  Biso   1.000  H
  H146     1.0000 0.16589  0.06791  0.57438  Biso   1.000  H
  H147     1.0000 0.67705  0.04469  0.58883  Biso   1.000  H
  H148     1.0000 0.88915  0.07300  0.35178  Biso   1.000  H
  H149     1.0000 0.84765  0.10160  0.37729  Biso   1.000  H
  H150     1.0000 0.16008  0.07648  0.29955  Biso   1.000  H
  H151     1.0000 0.50714  0.13301  0.21868  Biso   1.000  H
  H152     1.0000 0.84416  0.03187  0.50648  Biso   1.000  H
  H153     1.0000 0.80685  0.06319  0.49692  Biso   1.000  H
  H154     1.0000 0.71068  0.04232  0.45471  Biso   1.000  H
  H155     1.0000 0.13429  0.04548  0.53476  Biso   1.000  H
  H156     1.0000 0.53211  0.98860  0.34880  Biso   1.000  H
  H157     1.0000 0.94263  0.97994  0.33915  Biso   1.000  H
  H158     1.0000 0.69646  0.99005  0.29513  Biso   1.000  H
  H159     1.0000 0.76018  0.94530  0.29396  Biso   1.000  H
  H160     1.0000 0.22936  0.96352  0.26653  Biso   1.000  H
  H161     1.0000 0.17243  0.93440  0.28850  Biso   1.000  H
  H162     1.0000 0.05929  0.95994  0.31951  Biso   1.000  H
  H163     1.0000 0.77900  0.92474  0.35781  Biso   1.000  H
  H164     1.0000 0.91992  0.98967  0.46837  Biso   1.000  H
  H165     1.0000 0.67078  0.01556  0.46939  Biso   1.000  H
  H166     1.0000 0.36873  0.01165  0.42935  Biso   1.000  H
  H167     1.0000 0.31392  0.04771  0.39743  Biso   1.000  H
  H168     1.0000 0.14530  0.08465  0.43579  Biso   1.000  H
  H169     1.0000 0.39353  0.06732  0.47114  Biso   1.000  H
  H170     1.0000 0.57498  0.09381  0.45268  Biso   1.000  H
  H171     1.0000 0.81998  0.01160  0.37935  Biso   1.000  H
  H172     1.0000 0.25017  0.98606  0.42718  Biso   1.000  H
  H173     1.0000 0.25716  0.99500  0.37162  Biso   1.000  H
  H174     1.0000 0.98677  0.03069  0.35328  Biso   1.000  H
  H175     1.0000 0.83546  0.08739  0.44794  Biso   1.000  H
  H176     1.0000 0.15389  0.06383  0.50374  Biso   1.000  H
  H177     1.0000 0.37696  0.02391  0.48462  Biso   1.000  H
  H178     1.0000 0.80684  0.97474  0.40259  Biso   1.000  H
  H179     1.0000 0.25687  0.06114  0.44096  Biso   1.000  H
  H180     1.0000 0.72349  0.05354  0.49171  Biso   1.000  H
  H181     1.0000 0.41020  0.06969  0.51921  Biso   1.000  H
  H182     1.0000 0.46204  0.03850  0.52887  Biso   1.000  H
  H183     1.0000 0.98313  0.98671  0.34633  Biso   1.000  H
  H184     1.0000 0.31879  0.96633  0.34571  Biso   1.000  H
  H185     1.0000 0.54062  0.98269  0.39031  Biso   1.000  H
  H186     1.0000 0.40768  0.95246  0.39668  Biso   1.000  H
  H187     1.0000 0.60850  0.96737  0.44097  Biso   1.000  H
  H188     1.0000 0.33546  0.01090  0.50522  Biso   1.000  H
  H189     1.0000 0.28093  0.90724  0.35799  Biso   1.000  H
  H190     1.0000 0.08122  0.97263  0.38838  Biso   1.000  H
  H191     1.0000 0.76452  0.07106  0.37258  Biso   1.000  H
  H192     1.0000 0.79822  0.04190  0.36791  Biso   1.000  H
